32
Properties=species:S:1:pos:R:3 Energy=-775.215203887939  
C        3.60279828      -1.24939129      -0.00100980
C        2.97219541      -2.44044997      -0.00391664
B        1.45444087      -2.45042527      -0.00482357
N        0.71753955      -1.20254157      -0.00160738
C       -1.49749675       2.57299040      -0.00312389
C       -2.90221193       2.45502281      -0.00347911
C       -3.56584146       1.24250946      -0.00236953
B       -0.73312462       1.31240125      -0.00179810
C        2.85523736      -0.02060171       0.00042687
C        1.42612724      -0.01567746      -0.00028215
C        1.49538604       2.34819539       0.00175443
N        0.79416279       1.19939200       0.00003298
C        3.54927106       1.19147789       0.00222188
C        2.87146552       2.39607318       0.00302210
C       -2.87311243       0.00374816      -0.00101222
C       -1.44460112      -0.00503870      -0.00120081
C       -1.44475244      -2.42791644       0.00240439
C       -0.74853316      -1.23412557      -0.00012485
C       -3.56014639      -1.23806961       0.00079208
H        4.69375244      -1.15724640      -0.00008227
H        3.55998849      -3.36112898      -0.00549345
H        0.86370794      -3.48353188      -0.00829756
H       -1.10346021       3.59477784      -0.00383051
H       -3.51298174       3.36497405      -0.00449864
H       -4.65833815       1.22270028      -0.00239900
H        0.88708107       3.24978895       0.00205236
H        4.64091856       1.16357593       0.00289378
H        3.38568206       3.35635034       0.00442680
H       -0.94668044      -3.39005725       0.00421075
H       -4.65275707      -1.24430678       0.00094309
C       -2.85574839      -2.41341839       0.00274905
H       -3.38369267      -3.36979512       0.00459876
