32
Properties=species:S:1:pos:R:3 Energy=-775.260506011855  
C        3.53250725      -1.17763599       0.00171459
N        2.92995406      -2.37959765       0.00227863
B        1.50878853      -2.51823891       0.00189081
C        0.69970709      -1.24038306       0.00088941
C       -1.45696264       2.41096906      -0.00211590
C       -2.86419720       2.41601130      -0.00245307
C       -3.57370538       1.24611038      -0.00189650
C       -0.73979416       1.22805064      -0.00129353
C        2.82269040       0.00099970       0.00065228
C        1.37205410      -0.01767537       0.00016933
B        1.44372413       2.45485002      -0.00221885
N        0.69997182       1.21885225      -0.00107158
C        3.57644176       1.23164263      -0.00004867
C        2.96354310       2.43085112      -0.00146569
C       -2.88516491       0.00930861      -0.00088963
C       -1.45748803      -0.00632877      -0.00057738
C       -1.50320900      -2.42747452       0.00137532
C       -0.76825442      -1.25483833       0.00055246
C       -3.59057257      -1.22159827      -0.00011187
H        4.62478626      -1.15503023       0.00209604
H        3.53504829      -3.19260544       0.00296837
H        1.08069503      -3.64047026       0.00233954
H       -0.94400764       3.36557925      -0.00251688
H       -3.38292806       3.37702426      -0.00316323
H       -4.66554913       1.24653597      -0.00214947
H        0.86478888       3.49979437      -0.00380822
H        4.66814695       1.13506656       0.00054655
H        3.56368472       3.34342321      -0.00206706
H       -0.98580960      -3.38503540       0.00232888
H       -4.68243065      -1.19876405      -0.00038416
C       -2.91023215      -2.41077193       0.00101487
H       -3.45657189      -3.35658291       0.00167676
