32
Properties=species:S:1:pos:R:3 Energy=-775.238787073034  
N        3.59428110      -1.22534867      -0.00061456
B        2.92155606      -2.46778450      -0.00040866
C        1.40201780      -2.42241948      -0.00042588
N        0.70613588      -1.27836756      -0.00084038
C       -1.52207640       2.44588298       0.00145417
C       -2.92773671       2.41647323       0.00164735
C       -3.58431636       1.21486204       0.00058313
C       -0.75840215       1.29145611       0.00033760
C        2.94034891      -0.02205613      -0.00057430
B        1.42980871      -0.00786968      -0.00061837
C        1.48918061       2.45097423       0.00002576
C        0.70616116       1.30617358      -0.00013218
C        3.61578805       1.21120995      -0.00044265
C        2.90100195       2.39739457      -0.00018954
C       -2.85550084      -0.00312589      -0.00057952
C       -1.42765595       0.01892777      -0.00050188
C       -1.46351786      -2.41750822      -0.00309936
C       -0.73706247      -1.24397755      -0.00145795
C       -3.55417389      -1.23561543      -0.00193188
H        4.61141171      -1.19071593      -0.00065494
H        3.54517278      -3.49694040      -0.00024049
H        0.83060178      -3.34946384      -0.00003919
H       -1.01980798       3.41367927       0.00217704
H       -3.48786598       3.35383684       0.00257428
H       -4.67541466       1.17056299       0.00057520
H        1.03442335       3.44593927       0.00033755
H        4.71142550       1.24176806      -0.00047920
H        3.45253928       3.34060606      -0.00008128
H       -0.96264197      -3.38195657      -0.00435603
H       -4.64611583      -1.22019660      -0.00198647
C       -2.86960623      -2.41977827      -0.00331702
H       -3.40088595      -3.37311692      -0.00459904
