32
Properties=species:S:1:pos:R:3 Energy=-775.245107757615  
C        3.58474902      -1.19620397      -0.00040058
N        2.97858642      -2.39148705      -0.00125756
B        1.55217583      -2.54775537      -0.00177847
C        0.73337172      -1.28211609      -0.00131666
C       -1.49298696       2.47378718       0.00094045
C       -2.91721189       2.40615296       0.00054525
C       -3.59110754       1.22191970      -0.00062101
C       -0.73245222       1.32836024       0.00011669
C        2.86001104      -0.01563212       0.00009154
C        1.40974268      -0.03717110      -0.00031518
C        1.50250937       2.41156007       0.00109254
C        0.74134415       1.26663773       0.00032808
C        3.58388567       1.21972116       0.00097139
C        2.92199082       2.40611184       0.00142895
N       -2.92337251       0.01958902      -0.00144598
B       -1.47298690       0.01051362      -0.00107892
C       -1.51222347      -2.44976793      -0.00296928
C       -0.73812389      -1.31200776      -0.00184863
C       -3.60453089      -1.17987500      -0.00259771
H        4.67725367      -1.17607944      -0.00009787
H        3.58562452      -3.20396825      -0.00154188
H        1.13926949      -3.67874016      -0.00253375
H       -1.04570737       3.47240264       0.00192901
H       -3.49921730       3.32903653       0.00119798
H       -4.68249999       1.17437101      -0.00094212
H        0.99909617       3.37974545       0.00146484
H        4.67610254       1.18425556       0.00124694
H        3.46590875       3.35243514       0.00206897
H       -1.06392035      -3.44660287      -0.00358920
H       -4.69517969      -1.12151607      -0.00286060
C       -2.93709769      -2.36649964      -0.00334685
H       -3.52745147      -3.28448345      -0.00426353
