32
Properties=species:S:1:pos:R:3 Energy=-775.258473443831  
N        3.56801642      -1.31593420      -0.00197313
C        2.84959642      -2.45418930      -0.00183420
C        1.47843371      -2.45082542      -0.00170159
C        0.73712781      -1.23826731      -0.00174903
B       -1.46391636       2.48206880      -0.00346028
C       -2.98039228       2.44288651      -0.00328963
C       -3.59047382       1.23774807      -0.00235641
N       -0.72585294       1.24174072      -0.00245913
B        2.94483413      -0.01476769      -0.00205319
C        1.41468742      -0.02211530      -0.00204260
C        1.45110585       2.39491314      -0.00194852
C        0.71400667       1.23393700      -0.00215509
C        3.67542339       1.30972992      -0.00202067
C        2.88169947       2.42108139      -0.00189618
C       -2.83431231       0.01284213      -0.00169663
C       -1.41208643       0.02303941      -0.00183511
C       -1.46781565      -2.40799249      -0.00072202
C       -0.73051711      -1.22456065      -0.00141163
C       -3.52721497      -1.20864653      -0.00097988
H        4.57728878      -1.41316794      -0.00198385
H        3.40163875      -3.39736011      -0.00179581
H        0.97955822      -3.41655897      -0.00155830
H       -0.87954516       3.52392833      -0.00444123
H       -3.58865861       3.35066172      -0.00388193
H       -4.68147698       1.13784779      -0.00215329
H        0.94872022       3.35605484      -0.00183485
H        4.76203856       1.44298692      -0.00200277
H        3.33336192       3.41961913      -0.00176459
H       -0.94432151      -3.36245859      -0.00035854
H       -4.61922736      -1.17969822      -0.00085896
C       -2.85915497      -2.41487034      -0.00046648
H       -3.40623539      -3.35885763       0.00009909
