32
Properties=species:S:1:pos:R:3 Energy=-775.218186009118  
N        3.60337142      -1.28881085      -0.00183658
C        2.86569880      -2.42204078      -0.00197058
C        1.50615497      -2.38149209      -0.00181016
N        0.78294018      -1.21055418      -0.00150510
C       -1.49205285       2.45376526      -0.00054250
C       -2.89528934       2.43475801      -0.00039017
C       -3.58047428       1.23923606      -0.00054963
C       -0.76414206       1.26719577      -0.00086318
B        2.97998545      -0.00151311      -0.00152624
C        1.43225804      -0.02181514      -0.00135546
C        1.47899654       2.38630009      -0.00094297
C        0.71443971       1.23638876      -0.00104736
C        3.70285434       1.32838577      -0.00137249
C        2.90909424       2.43769247      -0.00109965
C       -2.87902726       0.00945987      -0.00086421
C       -1.45426106       0.02876158      -0.00102411
C       -1.50363290      -2.55467139      -0.00149879
B       -0.72221405      -1.29195721      -0.00135305
C       -3.56996059      -1.23557702      -0.00101989
H        4.61249738      -1.39345411      -0.00197104
H        3.38245834      -3.38290785      -0.00221763
H        0.92687233      -3.29915181      -0.00192615
H       -0.99016222       3.42153735      -0.00039542
H       -3.44250498       3.38004500      -0.00013995
H       -4.67355341       1.23023023      -0.00043108
H        0.96601325       3.34787242      -0.00072219
H        4.78969918       1.45448323      -0.00147761
H        3.35493199       3.43809309      -0.00098960
H       -1.10365590      -3.57383230      -0.00172600
H       -4.66295981      -1.21822061      -0.00089217
C       -2.90790197      -2.44904209      -0.00131983
H       -3.51624084      -3.35989336      -0.00141924
