32
Properties=species:S:1:pos:R:3 Energy=-775.280432877659  
B        3.63733121      -1.29670782      -0.00110272
N        2.82968903      -2.45293643      -0.00184471
C        1.45699306      -2.40870591      -0.00186204
C        0.74215959      -1.24833281      -0.00113612
C       -1.46813500       2.43824345       0.00014193
C       -2.86473871       2.45443488       0.00002547
C       -3.55881234       1.26211026      -0.00043182
C       -0.73897034       1.25186615      -0.00023417
C        2.87728730       0.02834719      -0.00044305
C        1.45579852       0.02101330      -0.00052618
C        1.47332349       2.43605307       0.00038510
C        0.74239113       1.25076192      -0.00010105
C        3.56224839       1.25680060       0.00011543
C        2.86994962       2.45015883       0.00052044
C       -2.87568190       0.03263542      -0.00076897
C       -1.45420862       0.02318400      -0.00069723
C       -1.45903354      -2.40653269      -0.00111919
C       -0.74246539      -1.24722756      -0.00100651
B       -3.63770959      -1.29127438      -0.00106896
H        4.83727730      -1.40860470      -0.00108912
H        3.23659638      -3.38005378      -0.00242627
H        0.96675156      -3.38155681      -0.00253191
H       -0.94872742       3.39562422       0.00056179
H       -3.39370833       3.40975645       0.00032594
H       -4.65143519       1.25926488      -0.00051112
H        0.95534715       3.39421227       0.00066538
H        4.65486602       1.25231909       0.00019968
H        3.40035292       3.40468522       0.00092423
H       -0.97024411      -3.38011925      -0.00115577
H       -4.83782512      -1.40136052      -0.00116080
N       -2.83179818      -2.44871076      -0.00116876
H       -3.24009798      -3.37521621      -0.00125167
