32
Properties=species:S:1:pos:R:3 Energy=-775.269521850061  
N        3.56996925      -1.17460887       0.00081859
B        2.96492848      -2.43947929       0.00189648
C        1.43845571      -2.43692945       0.00134147
C        0.72113209      -1.27609072      -0.00029261
C       -1.47940292       2.40356089      -0.00135041
C       -2.88729871       2.40849566      -0.00170109
C       -3.58246342       1.22824499      -0.00230237
C       -0.75002973       1.22572898      -0.00147278
C        2.86505314       0.02548365      -0.00031569
C        1.41895042       0.02080251      -0.00074569
B        1.51422054       2.53236942      -0.00220453
C        0.72299555       1.23359464      -0.00141944
C        3.56504391       1.20426823      -0.00093462
N        2.92583456       2.40040240      -0.00191874
C       -2.88738897      -0.00865101      -0.00241130
C       -1.46108003      -0.01493075      -0.00179482
C       -1.50117332      -2.43263055      -0.00260048
C       -0.76330758      -1.25994291      -0.00159852
C       -3.59015390      -1.23735645      -0.00317075
H        4.57814577      -1.07651945       0.00096351
H        3.66242414      -3.42269510       0.00301501
H        0.89623143      -3.38303682       0.00208630
H       -0.95249183       3.35592757      -0.00102474
H       -3.41913942       3.36233490      -0.00156781
H       -4.67475900       1.21885284      -0.00271343
H        1.07928479       3.65278094      -0.00314151
H        4.65733271       1.20884284      -0.00062499
H        3.51923015       3.22173539      -0.00244371
H       -0.99491920      -3.39657541      -0.00283204
H       -4.68247448      -1.22009985      -0.00367274
C       -2.90629222      -2.42634986      -0.00337958
H       -3.44661556      -3.37518790      -0.00413455
