32
Properties=species:S:1:pos:R:3 Energy=-775.219995115153  
B        3.62046143      -1.21346547       0.00027260
C        2.85075664      -2.48414665       0.00067134
C        1.47633769      -2.42079906       0.00020847
C        0.74143365      -1.20998275      -0.00061583
C       -1.46281852       2.43388566      -0.00269091
C       -2.88107586       2.40821298      -0.00308928
C       -3.51347115       1.21508473      -0.00286232
C       -0.73845584       1.27095831      -0.00208833
N        2.83267485       0.01226902      -0.00055458
C        1.43506926       0.00363435      -0.00095877
C        1.46450473       2.43379183      -0.00208892
C        0.74006784       1.27091068      -0.00172341
C        3.51507969       1.21485842      -0.00093652
C        2.88276138       2.40802774      -0.00169074
N       -2.83114522       0.01245184      -0.00223219
C       -1.43354036       0.00372725      -0.00180430
C       -1.47496475      -2.42070341      -0.00091338
C       -0.73998206      -1.20993564      -0.00111847
B       -3.61901031      -1.21323159      -0.00202987
H        4.81710137      -1.08041761       0.00055025
H        3.31715166      -3.47201377       0.00131443
H        0.91607467      -3.35628607       0.00050788
H       -0.96423732       3.40157081      -0.00288276
H       -3.45945136       3.33166270      -0.00358260
H       -4.59776799       1.11801143      -0.00315405
H        0.96598540       3.40150888      -0.00269121
H        4.59937010       1.11771644      -0.00058538
H        3.46119688       3.33144075      -0.00198183
H       -0.91476240      -3.35622671      -0.00039305
H       -4.81563960      -1.08010717      -0.00244725
C       -2.84938853      -2.48396210      -0.00133204
H       -3.31584682      -3.47179942      -0.00112558
