32
Properties=species:S:1:pos:R:3 Energy=-775.237829720863  
C        3.58842975      -1.17201513       0.00182941
N        2.99969866      -2.37864152       0.00102106
B        1.57964057      -2.56216727       0.00028594
C        0.74211023      -1.30463485       0.00033365
C       -1.43696853       2.41707726      -0.00172639
C       -2.81090777       2.45377527      -0.00271126
C       -3.59245307       1.27909862      -0.00267842
N       -0.72523286       1.25449047      -0.00055671
C        2.84640632      -0.00327857       0.00186636
C        1.39705674      -0.05611419       0.00094423
C        1.43267709       2.39547697       0.00225916
C        0.70586672       1.23375027       0.00087386
C        3.54536346       1.24610960       0.00297742
C        2.85487402       2.41271579       0.00328875
C       -2.97720360       0.04065602      -0.00182423
B       -1.45778302       0.00698489      -0.00079382
C       -1.51015244      -2.44174828      -0.00051362
C       -0.72058634      -1.31595710      -0.00024260
C       -3.65813986      -1.22181693      -0.00192362
H        4.68003359      -1.13452350       0.00250148
H        3.62055845      -3.18076985       0.00102469
H        1.17994433      -3.69684860      -0.00032966
H       -0.88790067       3.35538713      -0.00202196
H       -3.29058066       3.43352880      -0.00362458
H       -4.68466904       1.37185613      -0.00344570
H        0.93247477       3.36095875       0.00263908
H        4.63760843       1.23636025       0.00366578
H        3.37246773       3.37334593       0.00429304
H       -1.05445511      -3.43628098      -0.00019401
H       -4.75284051      -1.25249106      -0.00257711
C       -2.94542761      -2.38823891      -0.00126982
H       -3.48482952      -3.33902164      -0.00139081
