32
Properties=species:S:1:pos:R:3 Energy=-775.244031087056  
C        3.50833047      -1.22556436       0.00106433
C        2.93983164      -2.43889343       0.00520959
B        1.43117008      -2.48925399       0.00638266
N        0.71117192      -1.24069143       0.00238825
C       -1.45924462       2.42777497       0.00290440
C       -2.86689629       2.42198920       0.00399536
C       -3.55849392       1.24106511       0.00349645
C       -0.73172748       1.25080226       0.00162259
N        2.78594217      -0.03401908      -0.00116587
C        1.39560065      -0.01708820       0.00014135
C        1.48645734       2.42005435      -0.00339243
C        0.73680461       1.20990319      -0.00056290
B        3.58660582       1.18817493      -0.00424586
C        2.85177873       2.48170747      -0.00549658
C       -2.86136156       0.00578399       0.00223081
C       -1.43321689       0.00954950       0.00180726
C       -1.45561036      -2.40877065      -0.00069931
C       -0.73022442      -1.23105998       0.00113826
C       -3.55972200      -1.22459012       0.00116303
H        4.58593673      -1.05876741      -0.00051497
H        3.58570003      -3.31737420       0.00723128
H        0.84640106      -3.52797102       0.01050950
H       -0.95569990       3.39212349       0.00300882
H       -3.40238177       3.37381672       0.00501450
H       -4.65022899       1.22772953       0.00398587
H        0.91623844       3.35002533      -0.00404634
H        4.77935161       1.03602960      -0.00530016
H        3.33336711       3.46148713      -0.00775161
H       -0.95265540      -3.36814800      -0.00217944
H       -4.65141772      -1.21483740       0.00144167
C       -2.86179928      -2.40141545      -0.00061008
H       -3.38930239      -3.35749180      -0.00191188
