32
Properties=species:S:1:pos:R:3 Energy=-771.831958926830  
C        3.57028299      -1.20272360       0.00121597
N        2.94196109      -2.38840998       0.00120409
B        1.51522699      -2.53432280       0.00074155
C        0.71439319      -1.25553956       0.00024469
C       -1.48042776       2.43352978      -0.00010857
C       -2.88600167       2.43603782      -0.00049381
C       -3.57924810       1.25286061      -0.00093161
C       -0.75255967       1.25432118      -0.00015905
C        2.85997320      -0.01543657       0.00082817
C        1.41241811      -0.03620245       0.00039495
C        1.46690090       2.39886571       0.00006025
C        0.72573333       1.24148695       0.00010078
C        3.56943436       1.22766008       0.00082936
C        2.88796008       2.40299093       0.00042180
C       -2.88609035       0.01740043      -0.00092959
C       -1.45934104       0.01176401      -0.00048799
C       -1.49743916      -2.40881109      -0.00080780
C       -0.75764790      -1.23660545      -0.00036472
C       -3.59046253      -1.21383779      -0.00135086
H        4.66275049      -1.20045140       0.00153335
H        3.53569657      -3.21064496       0.00153917
H        1.10206586      -3.66337136       0.00082500
H       -0.96880929       3.39524064       0.00024382
H       -3.41968694       3.38880188      -0.00044703
H       -4.67159881       1.24441538      -0.00126385
H        0.96349354       3.36512224      -0.00026078
H        4.66186488       1.20875090       0.00114354
H        3.41933921       3.35639459       0.00038129
H       -0.97754764      -3.36558231      -0.00075215
H       -4.68264062      -1.19590453      -0.00170378
C       -2.90432411      -2.40025238      -0.00131514
H       -3.44525839      -3.34915385      -0.00166239
