32
Properties=species:S:1:pos:R:3 Energy=-775.228492735142  
B        3.62315256      -1.21273145      -0.00057733
C        2.85405357      -2.48529262      -0.00292517
C        1.48154821      -2.42456744      -0.00259039
C        0.74979997      -1.21027755      -0.00038964
C       -1.45511629       2.40279292      -0.00270982
C       -2.87330956       2.47837341      -0.00391697
C       -3.61597262       1.34110913      -0.00246935
C       -0.74696279       1.22899752      -0.00030643
N        2.83500980       0.01382288       0.00139108
C        1.44192108       0.00070328       0.00100824
C        1.44954565       2.42084581       0.00511428
C        0.73284461       1.25269941       0.00212480
C        3.51286252       1.21946422       0.00391151
C        2.86796641       2.40542356       0.00604444
B       -2.90257493       0.00051115      -0.00033676
N       -1.42313039       0.00559532       0.00010820
C       -1.43509773      -2.38524188       0.00238494
C       -0.72727892      -1.20886338       0.00079053
C       -3.61034484      -1.33861246       0.00120647
H        4.81911736      -1.07940517      -0.00012191
H        3.32245497      -3.47202003      -0.00482525
H        0.92206182      -3.35961949      -0.00432302
H       -0.90530499       3.33990532      -0.00372460
H       -3.32901834       3.47360808      -0.00585082
H       -4.70742237       1.41253362      -0.00317925
H        0.94882720       3.38585865       0.00676588
H        4.59760501       1.12925312       0.00415820
H        3.43614482       3.33515363       0.00827705
H       -0.88535478      -3.32113112       0.00344319
H       -4.70082576      -1.42083152       0.00125626
C       -2.85269040      -2.46675123       0.00273730
H       -3.29952268      -3.46633676       0.00409435
