32
Properties=species:S:1:pos:R:3 Energy=-775.262841666643  
B        3.62695962      -1.32053362      -0.00032902
N        2.82725213      -2.46676380       0.00089165
C        1.44785252      -2.37848547       0.00104850
C        0.76367843      -1.20946754       0.00019111
C       -1.55557049       2.42531706       0.00174334
C       -2.96564999       2.39496115       0.00233278
C       -3.62239415       1.19247993       0.00190303
C       -0.80170574       1.26719720       0.00089253
C        2.86474799       0.01632131      -0.00094819
N        1.46423415       0.03042681      -0.00038883
C        1.58845573       2.55639396      -0.00094374
B        0.75203568       1.29481291      -0.00014428
C        3.57741617       1.19409119      -0.00165265
C        2.95271702       2.46223140      -0.00172280
C       -2.89925934      -0.02971256       0.00098296
C       -1.47245147       0.00891583       0.00064130
C       -1.43969262      -2.40421089      -0.00105138
C       -0.72736237      -1.21416360      -0.00010186
C       -3.57006805      -1.27529156       0.00031869
H        4.82650533      -1.39807986      -0.00065558
H        3.21254432      -3.40250811       0.00161968
H        0.91965352      -3.32661823       0.00189735
H       -1.05428405       3.39524288       0.00193374
H       -3.52947055       3.33039470       0.00304453
H       -4.71435454       1.15252349       0.00222612
H        1.14289551       3.55505396      -0.00096000
H        4.66574901       1.12056541      -0.00207868
H        3.58711979       3.35477930      -0.00234305
H       -0.92613288      -3.36384984      -0.00211254
H       -4.66219504      -1.29266893       0.00056903
C       -2.84551489      -2.43844675      -0.00078475
H       -3.35191594      -3.40585063      -0.00149870
