32
Properties=species:S:1:pos:R:3 Energy=-775.209895598741  
C        3.58328218      -1.37161799       0.12061357
C        2.89524940      -2.45432276       0.54401903
B        1.36842474      -2.38703958       0.55142024
N        0.68886450      -1.19034536       0.16374168
C       -1.44780672       2.39134262       0.44183851
C       -2.85664405       2.37213655       0.46761175
C       -3.54801642       1.21383368       0.21369462
C       -0.73216791       1.23704106       0.18862212
B        2.85381323      -0.03787422      -0.13315442
N        1.39901999       0.00790223      -0.02278531
C        1.41907469       2.38251015      -0.25457026
C        0.72512947       1.21678727      -0.02305232
C        3.55451719       1.27348638      -0.39353871
C        2.81702876       2.42160511      -0.45371256
C       -2.85437900       0.00018715      -0.02163702
C       -1.43326214       0.01632239       0.02489858
C       -1.37812341      -2.35152407      -0.43882738
C       -0.70462508      -1.19305590      -0.10859345
C       -3.51773995      -1.22120267      -0.29918199
H        4.67695140      -1.41063583       0.03561489
H        3.41908743      -3.37906274       0.81146285
H        0.67740680      -3.32667511       0.82601593
H       -0.93200828       3.33540414       0.61355444
H       -3.39719347       3.29921909       0.66921996
H       -4.63997473       1.20967581       0.19432382
H        0.85322127       3.31010538      -0.29936719
H        4.63847951       1.32893736      -0.52956587
H        3.27990233       3.39507750      -0.64438483
H       -0.82886198      -3.27435720      -0.60834581
H       -4.60862905      -1.23752946      -0.34069463
C       -2.78590901      -2.35727778      -0.52982001
H       -3.29059701      -3.29367679      -0.77645393
