32
Properties=species:S:1:pos:R:3 Energy=-775.217108628072  
C        3.58818053      -1.21477248      -0.00142982
C        2.90460070      -2.40369086      -0.00304973
C        1.51307649      -2.37346748      -0.00338808
N        0.81034638      -1.23648529      -0.00215553
C       -1.48288189       2.45936607      -0.00026773
C       -2.85822837       2.50769143      -0.00074983
B       -3.61867657       1.22608606      -0.00158081
C       -0.76042473       1.24161435      -0.00059923
C        2.88344320       0.01184144      -0.00027895
C        1.45191792      -0.00949767      -0.00076021
C        1.45940632       2.39395055       0.00170641
C        0.70250320       1.21738260       0.00012812
C        3.57516647       1.24143843       0.00126792
C        2.85684459       2.41211284       0.00227612
N       -2.83224849      -0.00890412      -0.00194943
C       -1.44848709       0.01058677      -0.00156980
C       -1.48443152      -2.56130808      -0.00275564
B       -0.70983963      -1.31400540      -0.00218846
C       -3.51130353      -1.21397700      -0.00266727
H        4.67990149      -1.19316222      -0.00106695
H        3.41711973      -3.36564161      -0.00407595
H        0.92817976      -3.29025698      -0.00467415
H       -0.92697759       3.39922310       0.00035915
H       -3.33812001       3.48928487      -0.00047745
H       -4.81731554       1.10229602      -0.00198726
H        0.94488391       3.35193195       0.00255855
H        4.66606830       1.23738779       0.00162897
H        3.37393356       3.37390440       0.00353248
H       -1.09785112      -3.58481368      -0.00295247
H       -4.59535886      -1.11724566      -0.00291088
C       -2.89214435      -2.43016811      -0.00300019
H       -3.53694299      -3.31315126      -0.00347639
