32
Properties=species:S:1:pos:R:3 Energy=-775.271868525532  
C        3.60461120      -1.27257239       0.00109770
C        2.89905348      -2.42730240       0.00069173
N        1.52038247      -2.44847310       0.00097334
B        0.74782855      -1.25474941       0.00171387
C       -1.58347842       2.51339892       0.00499108
C       -2.95780517       2.42983705       0.00528461
C       -3.60287956       1.18719379       0.00438061
B       -0.75236312       1.26309532       0.00371049
C        2.94268212       0.01136551       0.00190437
C        1.52729732       0.04579562       0.00229729
C        1.55842755       2.45165084       0.00356282
C        0.81785675       1.26986177       0.00317207
C        3.65119554       1.22695380       0.00232893
C        2.95927128       2.42606449       0.00312913
C       -2.89263056      -0.00491826       0.00323482
N       -1.49569841      -0.01670599       0.00293092
C       -1.52933078      -2.42081022       0.00093671
C       -0.82088698      -1.25423884       0.00185298
C       -3.60309902      -1.24961362       0.00229807
H        4.69484485      -1.31726415       0.00083110
H        3.39900538      -3.39818621       0.00012127
H        1.10153453      -3.37047685       0.00064662
H       -1.13640680       3.51094125       0.00572606
H       -3.57847607       3.33218488       0.00621950
H       -4.69140949       1.12434741       0.00454956
H        1.05222489       3.41914216       0.00421338
H        4.74412357       1.21888144       0.00202369
H        3.51366782       3.36794861       0.00343762
H       -0.99131414      -3.37010415       0.00001936
H       -4.69262105      -1.19739515       0.00254864
C       -2.95059660      -2.43684705       0.00113351
H       -3.49565385      -3.38236681       0.00037175
