32
Properties=species:S:1:pos:R:3 Energy=-775.244062704256  
C        3.59943660      -1.18305581       0.00087009
C        2.93898974      -2.37976536       0.00162132
C        1.53392609      -2.41284388       0.00188698
N        0.79871940      -1.30965775       0.00145718
C       -1.51063622       2.47616730      -0.00061462
C       -2.91388963       2.44598126      -0.00039687
C       -3.57675404       1.24005127       0.00056135
C       -0.77235704       1.29900142       0.00010671
N        2.91127384      -0.00312817       0.00033871
B        1.45384116      -0.01458647       0.00058614
C        1.48253543       2.43998554      -0.00079027
C        0.70022615       1.30784658      -0.00007461
C        3.58775634       1.20397280      -0.00043377
C        2.90588836       2.37832197      -0.00096844
C       -2.86633144       0.01260529       0.00131203
C       -1.43611388       0.03292180       0.00105487
C       -1.52860040      -2.55796177       0.00288954
B       -0.72264061      -1.31420272       0.00182625
C       -3.57638962      -1.22047935       0.00231412
H        4.68967872      -1.11780660       0.00066256
H        3.50183101      -3.31214235       0.00202364
H        1.00720433      -3.36908408       0.00247780
H       -1.00986602       3.44586077      -0.00136882
H       -3.47483438       3.38327090      -0.00099475
H       -4.66981330       1.21481564       0.00074299
H        1.03208336       3.43538405      -0.00124919
H        4.67742036       1.14916400      -0.00057654
H        3.48177927       3.30506221      -0.00156532
H       -1.13361762      -3.58074102       0.00358027
H       -4.66889726      -1.18469268       0.00249106
C       -2.93144410      -2.44120063       0.00307799
H       -3.54991697      -3.34571249       0.00386789
