32
Properties=species:S:1:pos:R:3 Energy=-775.311372092181  
N        3.58189648      -1.25423171      -0.00115315
C        2.94294292      -2.45634733      -0.00045383
C        1.58877646      -2.54561323      -0.00060119
B        0.74759499      -1.27791495      -0.00152985
C       -1.45600554       2.40451809      -0.00140371
C       -2.86256019       2.43374388      -0.00128360
C       -3.58108501       1.26657759      -0.00171938
C       -0.74069775       1.21741736      -0.00199943
B        2.90009120       0.01229411      -0.00198997
N        1.44342790       0.00731139      -0.00192341
C        1.45436120       2.39734451      -0.00371383
C        0.74991337       1.22106170      -0.00256477
C        3.64188617       1.33503618      -0.00303995
C        2.87889224       2.45998936      -0.00396116
C       -2.90568848       0.02280012      -0.00209194
C       -1.47966777      -0.00969380      -0.00210218
C       -1.55429497      -2.42766995      -0.00235405
C       -0.80504669      -1.26584176      -0.00210020
C       -3.62377121      -1.20188699      -0.00238677
H        4.59358880      -1.27147628      -0.00112936
H        3.59122742      -3.33962491       0.00020646
H        1.15991913      -3.54910151      -0.00002491
H       -0.93783219       3.36118593      -0.00095783
H       -3.37407504       3.39833484      -0.00084581
H       -4.67343135       1.27924522      -0.00170011
H        0.91620305       3.34081078      -0.00451761
H        4.73203365       1.42839948      -0.00322008
H        3.33419288       3.45591925      -0.00489805
H       -1.04735128      -3.39473531      -0.00236522
H       -4.71600006      -1.16609518      -0.00243231
C       -2.96413595      -2.40360913      -0.00257070
H       -3.52530381      -3.34047806      -0.00281044
