32
Properties=species:S:1:pos:R:3 Energy=-775.241985827017  
B        3.67091389      -1.24501901       0.00188338
N        2.94857809      -2.44824013       0.00202136
C        1.58245679      -2.50209853       0.00189667
B        0.75584490      -1.28045307       0.00151858
C       -1.44890277       2.40172324      -0.00112344
C       -2.85465150       2.43196429      -0.00162844
C       -3.57390595       1.26578577      -0.00096590
C       -0.73918372       1.20958055       0.00007726
C        2.85374978       0.04689951       0.00156067
N        1.46159476       0.02490565       0.00126410
C        1.44460700       2.41448090       0.00121261
C        0.74784858       1.22052800       0.00086395
C        3.53152645       1.27707654       0.00167811
C        2.84240439       2.46300510       0.00161410
C       -2.90519254       0.01744978       0.00010115
C       -1.47733470      -0.01886926       0.00055285
C       -1.55565352      -2.43078121       0.00191275
C       -0.79742651      -1.27144413       0.00139404
C       -3.62810150      -1.20226784       0.00067848
H        4.87467737      -1.24402419       0.00204280
H        3.44393748      -3.33484203       0.00227439
H        1.16143662      -3.51034951       0.00210125
H       -0.93522221       3.36042935      -0.00176706
H       -3.36503386       3.39719142      -0.00256056
H       -4.66622407       1.28160329      -0.00131218
H        0.89489683       3.35052872       0.00117635
H        4.62167005       1.25082914       0.00190291
H        3.35882890       3.42420920       0.00184903
H       -1.05611675      -3.40193565       0.00256616
H       -4.71990839      -1.16593586       0.00036357
C       -2.96279368      -2.40203892       0.00159292
H       -3.52303831      -3.33995181       0.00204185
