32
Properties=species:S:1:pos:R:3 Energy=-775.251097423959  
C        3.64892709      -1.21347490      -0.00014820
C        2.94111151      -2.39654587       0.00038638
C        1.53590819      -2.40335763       0.00095540
N        0.78253607      -1.30681675       0.00114995
C       -1.44091604       2.45856100       0.00487602
C       -2.84751951       2.45122619       0.00586430
C       -3.53902941       1.26517277       0.00497411
C       -0.74572168       1.26180083       0.00291215
C        2.95785037       0.02174749       0.00001232
B        1.44515426      -0.02264154       0.00092486
C        1.42483858       2.36981603       0.00016053
N        0.70277211       1.23379051       0.00137742
C        3.58752982       1.27107978      -0.00073964
C        2.81334663       2.42509145      -0.00079342
C       -2.85430640       0.02323414       0.00334757
C       -1.42207619       0.01337756       0.00242767
C       -1.55330599      -2.56878815       0.00071151
B       -0.72897253      -1.33840627       0.00131711
C       -3.58214971      -1.19615660       0.00273275
H        4.74363166      -1.23413620      -0.00075107
H        3.45640583      -3.35767552       0.00027831
H        1.00484643      -3.35789013       0.00121152
H       -0.94432931       3.42676046       0.00588232
H       -3.38204868       3.40342844       0.00738555
H       -4.63182411       1.26575139       0.00567507
H        0.87358445       3.30705634      -0.00016267
H        4.67961557       1.35102850      -0.00141467
H        3.27815155       3.41135501      -0.00164988
H       -1.17143226      -3.59584483      -0.00024253
H       -4.67357502      -1.14354393       0.00336614
C       -2.95229057      -2.42653903       0.00141485
H       -3.58535956      -3.32112540       0.00097435
