32
Properties=species:S:1:pos:R:3 Energy=-775.228669039263  
C        3.53342913      -1.20395585       0.00044972
B        2.84381024      -2.51083739       0.00014317
N        1.41536436      -2.37581630       0.00016375
C        0.73919982      -1.21982745       0.00043931
C       -1.46821190       2.41792460      -0.00132435
C       -2.87257890       2.40505732      -0.00157622
C       -3.56370709       1.22014250      -0.00085297
C       -0.71875564       1.24754009      -0.00036070
N        2.84851666      -0.02111827       0.00053034
C        1.44855263       0.00679034       0.00039574
C        1.48145255       2.44188186       0.00051994
C        0.75061657       1.24649792       0.00020311
B        3.63030330       1.23144135       0.00080185
C        2.86558665       2.49384706       0.00086321
C       -2.85487975      -0.00512974       0.00003180
C       -1.42803673       0.00599729       0.00015310
C       -1.44482245      -2.42480785       0.00175502
C       -0.72728293      -1.23749220       0.00081900
C       -3.54065097      -1.24602797       0.00083027
H        4.61373494      -1.06507543       0.00059306
H        3.33667303      -3.60510520      -0.00010491
H        0.84296284      -3.21224369      -0.00008401
H       -0.97087406       3.38589996      -0.00192678
H       -3.41121261       3.35505027      -0.00233841
H       -4.65531054       1.20286959      -0.00096633
H        0.92360946       3.37983139       0.00053804
H        4.82579262       1.09987928       0.00094717
H        3.33855808       3.47862849       0.00114234
H       -0.94488465      -3.39486027       0.00263344
H       -4.63282146      -1.24055374       0.00075288
C       -2.84953802      -2.43050027       0.00175723
H       -3.38239178      -3.38306868       0.00250068
