32
Properties=species:S:1:pos:R:3 Energy=-775.215625984720  
B        3.65019459      -1.19959837      -0.00017965
C        2.88681496      -2.47135826       0.00095034
C        1.52821011      -2.37437282       0.00078928
N        0.83094563      -1.20029263      -0.00022177
C       -1.47032825       2.45706214      -0.00173550
C       -2.87541643       2.43688762      -0.00148094
C       -3.56077789       1.24345932      -0.00103656
C       -0.75602670       1.26527986      -0.00156043
N        2.83890476       0.02839167      -0.00130182
C        1.45990955       0.00226507      -0.00117055
C        1.46372216       2.40971311      -0.00348002
C        0.72216744       1.24425349      -0.00206894
C        3.52415556       1.22562063      -0.00252836
C        2.86978890       2.41100691      -0.00369344
C       -2.87090835       0.00472161      -0.00070469
C       -1.44183496       0.02364364      -0.00091322
C       -1.47788309      -2.54784867       0.00032905
B       -0.70671793      -1.28976727      -0.00029162
C       -3.56187331      -1.23573648      -0.00012755
H        4.84028085      -1.04893853      -0.00030795
H        3.32593480      -3.46927533       0.00183095
H        0.87933242      -3.24927240       0.00149501
H       -0.97357491       3.42727579      -0.00201214
H       -3.42214972       3.38248936      -0.00163580
H       -4.65398206       1.23972419      -0.00086894
H        0.94558745       3.36653952      -0.00446019
H        4.60764328       1.13136991      -0.00251689
H        3.43198588       3.34456750      -0.00475083
H       -1.08488363      -3.57004399       0.00079318
H       -4.65448880      -1.22366621      -0.00003925
C       -2.88515911      -2.43974778       0.00033807
H       -3.48618798      -3.35631204       0.00076693
