32
Properties=species:S:1:pos:R:3 Energy=-775.237837031442  
C        3.56801716      -1.20193664       0.00091294
N        2.92506735      -2.38231564       0.00083485
B        1.50083891      -2.52105324      -0.00019268
C        0.70119591      -1.23653286      -0.00124890
C       -1.46312995       2.43929153      -0.00445910
C       -2.88037734       2.42344415      -0.00557961
C       -3.52296213       1.23429737      -0.00556384
C       -0.74349586       1.27124140      -0.00338927
C        2.86273447      -0.01250747      -0.00005659
C        1.41432464      -0.02692751      -0.00117136
C        1.47471989       2.41111931      -0.00205354
C        0.73449292       1.25247963      -0.00219720
C        3.57216966       1.23048457       0.00003619
C        2.89504715       2.40874105      -0.00093164
N       -2.84831601       0.02926352      -0.00450073
C       -1.45217047       0.01144586      -0.00341280
C       -1.50997664      -2.41973477      -0.00237821
C       -0.76924763      -1.21077913      -0.00236492
B       -3.64219860      -1.19605462      -0.00456893
H        4.66002817      -1.20943225       0.00175926
H        3.51037979      -3.21049412       0.00157614
H        1.08687428      -3.64947967      -0.00012100
H       -0.95672027       3.40304396      -0.00446328
H       -3.45229937       3.35108439      -0.00644854
H       -4.60800984       1.14539745      -0.00637901
H        0.97585590       3.37981448      -0.00281926
H        4.66457619       1.20966377       0.00089747
H        3.43058830       3.35980422      -0.00086531
H       -0.93166710      -3.34503059      -0.00150313
H       -4.83842001      -1.05317191      -0.00556542
C       -2.88419299      -2.47460088      -0.00340453
H       -3.36079321      -3.45784009      -0.00331381
