32
Properties=species:S:1:pos:R:3 Energy=-775.199163271062  
C        3.58434868      -1.21875172       0.00075341
C        2.87951280      -2.39452987       0.00098720
C        1.48854163      -2.35712789       0.00120425
N        0.77807068      -1.21507810       0.00124388
C       -1.45152507       2.45347002       0.00146289
C       -2.87088800       2.42729564       0.00171196
C       -3.51379376       1.23345438       0.00183087
C       -0.74484249       1.27364223       0.00129286
C        2.87871310       0.01132250       0.00071806
C        1.45124685       0.00564203       0.00098435
C        1.48211085       2.41575967       0.00053178
C        0.73297790       1.24079721       0.00094260
C        3.57473021       1.23971193       0.00039484
C        2.87987265       2.42388992       0.00028162
N       -2.84562997       0.03038239       0.00176592
C       -1.43938939       0.02112035       0.00149509
C       -1.51566381      -2.56966149       0.00193734
B       -0.72392536      -1.27904882       0.00154151
B       -3.62076647      -1.20306593       0.00204217
H        4.67541841      -1.20690892       0.00056887
H        3.37807112      -3.36428463       0.00099254
H        0.90493204      -3.27365000       0.00135239
H       -0.95243513       3.42101039       0.00143313
H       -3.44738715       3.35215992       0.00180878
H       -4.60055582       1.15313152       0.00200797
H        0.96797118       3.37494749       0.00038123
H        4.66606459       1.22334004       0.00020632
H        3.41155475       3.37728342      -0.00001723
H       -1.05988098      -3.56940585       0.00211840
H       -4.82080421      -1.06714718       0.00221466
C       -2.89251698      -2.51846551       0.00213477
H       -3.45269189      -3.46069049       0.00242368
