32
Properties=species:S:1:pos:R:3 Energy=-775.257625654770  
N        3.55148462      -1.32290993      -0.00353923
C        2.82099264      -2.45442950      -0.00422898
C        1.44881539      -2.43460739      -0.00334218
C        0.71801230      -1.21422760      -0.00168555
C       -1.48578291       2.42977941       0.00322206
C       -2.90621545       2.41803172       0.00402341
C       -3.59359431       1.24471285       0.00324772
C       -0.75040469       1.26903970       0.00167202
B        2.94161488      -0.01757377      -0.00180454
C        1.41481830      -0.00375006      -0.00086830
C        1.48329129       2.41285001       0.00157597
C        0.72685678       1.26129786       0.00082178
C        3.68758875       1.30600747      -0.00087669
C        2.91519386       2.43284903       0.00075813
C       -2.90501982      -0.01583891       0.00159032
C       -1.45669906       0.00686881       0.00080419
N       -1.43496090      -2.37100605      -0.00167825
C       -0.75217123      -1.20204553      -0.00083409
C       -3.60649635      -1.21867615       0.00074563
H        4.55981627      -1.43352387      -0.00430245
H        3.36210070      -3.40358070      -0.00554639
H        0.95449899      -3.40531889      -0.00398662
H       -0.98216415       3.39571267       0.00386710
H       -3.44230381       3.36972730       0.00528360
H       -4.68546043       1.23296383       0.00385806
H        0.98589791       3.38325638       0.00288253
H        4.77635517       1.42275408      -0.00139101
H        3.38376335       3.42314102       0.00152283
H       -0.86472089      -3.20705584      -0.00293412
H       -4.69797926      -1.14990368       0.00142603
B       -2.86206224      -2.51262505      -0.00103094
H       -3.31481718      -3.62924588      -0.00196974
