32
Properties=species:S:1:pos:R:3 Energy=-775.232664506559  
N        3.58230653      -1.18027565      -0.00163712
B        2.96611108      -2.45595593      -0.00285251
C        1.45440177      -2.43408888      -0.00242249
C        0.72094161      -1.27186088      -0.00091372
C       -1.48159827       2.55020478       0.00070406
C       -2.88869640       2.45002537       0.00088478
C       -3.56022011       1.24389895       0.00099916
B       -0.71272585       1.28800017       0.00061113
C        2.88491708      -0.00197677      -0.00038357
C        1.46272452      -0.00624976      -0.00014353
C        1.50404401       2.35962848       0.00195567
N        0.81606304       1.20667119       0.00084042
C        3.58306524       1.21296941       0.00065762
C        2.88527223       2.40214999       0.00189930
C       -2.87148565      -0.00030772       0.00077832
C       -1.44411341      -0.02604352       0.00041863
C       -1.49009626      -2.45267523       0.00018844
C       -0.76098473      -1.26940841      -0.00006530
C       -3.57322150      -1.23059537       0.00090328
H        4.59074029      -1.07961525      -0.00170616
H        3.66477238      -3.43541806      -0.00402210
H        0.90145894      -3.37296567      -0.00323518
H       -1.08205047       3.57000023       0.00053485
H       -3.48951635       3.36618549       0.00095888
H       -4.65301654       1.23100005       0.00122332
H        0.90191530       3.26443655       0.00291440
H        4.67530629       1.20006040       0.00050152
H        3.39529934       3.36534318       0.00282077
H       -0.99441561      -3.42265405       0.00003685
H       -4.66636630      -1.21797423       0.00122166
C       -2.89413913      -2.42793651       0.00068987
H       -3.44484937      -3.37114024       0.00088894
