32
Properties=species:S:1:pos:R:3 Energy=-775.256406447390  
C        3.57470773      -1.18891752      -0.00034890
N        2.95239154      -2.37880256       0.00033167
B        1.52710970      -2.53565647       0.00120440
C        0.71557827      -1.26084334       0.00137620
N       -1.43562369       2.38638045       0.00247619
B       -2.86481142       2.52823531       0.00335664
C       -3.61380353       1.23886367       0.00379803
C       -0.75412433       1.21693406       0.00200892
C        2.85573786      -0.00740352      -0.00019521
C        1.40907669      -0.04213177       0.00072936
C        1.44078752       2.39806825       0.00009104
C        0.71440623       1.23002064       0.00092722
C        3.55145223       1.24347174      -0.00097493
C        2.86146757       2.41462840      -0.00086481
C       -2.91250962       0.03572573       0.00341957
C       -1.46349890       0.01273592       0.00252465
C       -1.48556857      -2.41212693       0.00269855
C       -0.75381568      -1.24619022       0.00219832
C       -3.59621421      -1.22754889       0.00388791
H        4.66702422      -1.18010956      -0.00103237
H        3.55114585      -3.19754413       0.00018547
H        1.12119328      -3.66655977       0.00172738
H       -0.86882423       3.22446854       0.00219959
H       -3.31180905       3.64813347       0.00366986
H       -4.70533395       1.17188652       0.00445689
H        0.94109038       3.36810676       0.00010735
H        4.64393540       1.23589698      -0.00167877
H        3.38494055       3.37202918      -0.00149749
H       -0.96900172      -3.37038217       0.00246222
H       -4.68817462      -1.21919494       0.00454460
C       -2.90491369      -2.39975146       0.00353301
H       -3.44121139      -3.35169398       0.00390387
