32
Properties=species:S:1:pos:R:3 Energy=-775.267192733891  
C        3.56982758      -1.19231010      -0.00057913
N        2.94351979      -2.37953997       0.00069505
B        1.51838641      -2.52833823       0.00167455
C        0.71421265      -1.25149770       0.00116470
C       -1.46928489       2.41706723      -0.00117542
N       -2.83924709       2.46399016      -0.00052013
B       -3.65263639       1.30748810       0.00123427
C       -0.76150076       1.25009857      -0.00020694
C        2.85751958      -0.00643462      -0.00106477
C        1.40899474      -0.02958753      -0.00022542
C        1.46156254       2.40458818      -0.00187053
C        0.71871437       1.24798640      -0.00081172
C        3.56682819       1.23706423      -0.00231809
C        2.88281851       2.41006048      -0.00266331
C       -2.90032098      -0.02034688       0.00224146
C       -1.47964096      -0.01456715       0.00141379
C       -1.48987338      -2.42868203       0.00369887
C       -0.75967349      -1.24005982       0.00211624
C       -3.58296031      -1.25110222       0.00385191
H        4.66224311      -1.18811413      -0.00120333
H        3.53926352      -3.20025879       0.00097994
H        1.10845975      -3.65871719       0.00281290
H       -0.97113927       3.38569764      -0.00256736
H       -3.24451858       3.39194500      -0.00138838
H       -4.85176103       1.42943165       0.00176846
H        0.96324865       3.37397208      -0.00213364
H        4.65915536       1.21901369      -0.00293314
H        3.41206146       3.36478700      -0.00355629
H       -0.95291137      -3.37641789       0.00426310
H       -4.67571712      -1.24950488       0.00450072
C       -2.88637224      -2.44320768       0.00458964
H       -3.41652535      -3.39814070       0.00584981
