32
Properties=species:S:1:pos:R:3 Energy=-775.279813737711  
N        3.55617923      -1.21642038      -0.00033230
B        2.95201753      -2.49238668       0.00065438
C        1.43737595      -2.47215266       0.00110637
C        0.73613965      -1.29157154       0.00057369
C       -1.45818400       2.42105214      -0.00154651
C       -2.86480421       2.42946991      -0.00117585
C       -3.56040349       1.25008870      -0.00004372
C       -0.72838100       1.24493191      -0.00079108
C        2.86383124      -0.02937842      -0.00088204
C        1.46294066      -0.03354371      -0.00047690
C        1.45546899       2.40339773      -0.00197994
C        0.75272007       1.23221811      -0.00110616
B        3.62808363       1.28836740      -0.00189791
N        2.82302264       2.44305132      -0.00235935
C       -2.86591989       0.01520031       0.00072578
C       -1.43770457       0.00250855       0.00033095
C       -1.49774288      -2.41649130       0.00218273
C       -0.75054175      -1.25293514       0.00105685
C       -3.57844844      -1.20974688       0.00187987
H        4.56485122      -1.11285079      -0.00068457
H        3.64902890      -3.47606179       0.00107268
H        0.87854877      -3.40838852       0.00188930
H       -0.95121994       3.38507322      -0.00247435
H       -3.39372837       3.38476904      -0.00180514
H       -4.65249316       1.24130015       0.00026852
H        0.95928605       3.37156300      -0.00241333
H        4.83016448       1.38300268      -0.00228306
H        3.23557397       3.36814690      -0.00300422
H       -0.99852396      -3.38369857       0.00277088
H       -4.67042639      -1.18244586       0.00217866
C       -2.90448668      -2.40160331       0.00260670
H       -3.45062190      -3.34708777       0.00351694
