32
Properties=species:S:1:pos:R:3 Energy=-775.273630727053  
N        3.56571820      -1.31738252       0.00073241
C        2.83956667      -2.45259926      -0.00020651
C        1.46924544      -2.44248685      -0.00080194
C        0.72117760      -1.23022665      -0.00046802
C       -1.48976569       2.44755438       0.00007647
C       -2.88517548       2.45688044      -0.00057899
C       -3.57656324       1.26060387      -0.00135184
C       -0.75378089       1.26320636      -0.00003698
B        2.94122764      -0.01851564       0.00111327
C        1.41411062      -0.01535839       0.00041411
C        1.47465014       2.40772743       0.00159902
C        0.72530025       1.25325679       0.00069020
C        3.68150892       1.30810811       0.00212284
C        2.90645585       2.43246912       0.00230622
C       -2.88818639       0.03506507      -0.00150122
C       -1.46723236       0.03435533      -0.00086147
C       -1.45757860      -2.40372077      -0.00169643
C       -0.75251972      -1.23485526      -0.00103754
B       -3.63819636      -1.29493115      -0.00227625
H        4.57429073      -1.42053394       0.00113584
H        3.38641475      -3.39887026      -0.00049425
H        0.97443941      -3.41125865      -0.00158618
H       -0.96827972       3.40430951       0.00070260
H       -3.41923087       3.40940755      -0.00046108
H       -4.66921842       1.25482186      -0.00185141
H        0.97568498       3.37703087       0.00180995
H        4.77033591       1.42748464       0.00270418
H        3.37215216       3.42449965       0.00301902
H       -0.95465133      -3.36973878      -0.00177010
H       -4.83666736      -1.41716183      -0.00284792
N       -2.82464460      -2.45441696      -0.00227952
H       -3.23018186      -3.38240456      -0.00271720
