32
Properties=species:S:1:pos:R:3 Energy=-775.270511731671  
B        3.64413770      -1.30824370       0.00148160
N        2.83258459      -2.45769703       0.00184296
C        1.45337044      -2.41159365       0.00168370
C        0.74472139      -1.25187625       0.00128774
C       -1.45037923       2.41645197       0.00341254
C       -2.85903637       2.42162111       0.00370856
C       -3.55036508       1.24058107       0.00277561
C       -0.72798651       1.23690772       0.00222656
C        2.90210625       0.04675255       0.00118883
C        1.45604114       0.02470395       0.00131987
N        1.42554163       2.39543136       0.00120651
C        0.74261990       1.21684581       0.00153816
C        3.59910014       1.24157184       0.00102204
B        2.84361575       2.54413731       0.00089969
C       -2.85868713       0.00034207       0.00169477
C       -1.43232021      -0.01049253       0.00158288
C       -1.48006816      -2.42645941      -0.00031545
C       -0.73354434      -1.25797945       0.00080990
C       -3.56789320      -1.22429933       0.00073060
H        4.84266228      -1.42751883       0.00151129
H        3.23692593      -3.38601914       0.00220071
H        0.95817916      -3.38129253       0.00191120
H       -0.95024751       3.38588830       0.00425704
H       -3.39088263       3.37503333       0.00465757
H       -4.64246929       1.23225891       0.00288794
H        0.85205702       3.22907281       0.00102254
H        4.69124709       1.18062426       0.00096080
H        3.29303382       3.66264355       0.00056734
H       -0.98293305      -3.39595357      -0.00124628
H       -4.65970563      -1.20347911       0.00079493
C       -2.88460947      -2.41350696      -0.00034156
H       -3.42716812      -3.36119481      -0.00122058
