32
Properties=species:S:1:pos:R:3 Energy=-775.244691203243  
N        3.54197082      -1.32921264       0.00075374
C        2.81047889      -2.45601975      -0.00001262
C        1.43893931      -2.43407058       0.00005015
C        0.70859765      -1.21502458       0.00091240
C       -1.51042149       2.45579536       0.00270381
C       -2.94723300       2.40143275       0.00259964
C       -3.65451299       1.23312261       0.00207428
C       -0.71717111       1.33553811       0.00230517
B        2.92690784      -0.02642492       0.00163173
C        1.39787125       0.00605501       0.00164175
C        1.53320062       2.43716792       0.00326698
C        0.75133552       1.30572860       0.00243794
C        3.70328193       1.28176520       0.00254377
C        2.96508394       2.42939687       0.00332629
C       -2.96780662      -0.02702636       0.00155551
B       -1.44901980       0.00805158       0.00162777
C       -1.43220029      -2.40930440       0.00050617
N       -0.72037803      -1.24620007       0.00100629
C       -3.58279269      -1.26499681       0.00097056
H        4.55043071      -1.43667750       0.00067308
H        3.34570500      -3.40854382      -0.00070798
H        0.94207331      -3.39897232      -0.00064233
H       -1.06474022       3.45615508       0.00311736
H       -3.48756172       3.35135223       0.00297057
H       -4.74924539       1.25913653       0.00204455
H        1.04282111       3.41267314       0.00392399
H        4.79555359       1.36385031       0.00262587
H        3.45929711       3.40740294       0.00403322
H       -0.88251509      -3.34689516       0.00012981
H       -4.67524443      -1.35573341       0.00088222
C       -2.80526598      -2.44392292       0.00048159
H       -3.28898239      -3.42149595       0.00006337
