32
Properties=species:S:1:pos:R:3 Energy=-775.222848904302  
C        3.58024325      -1.26011858       0.00286253
C        2.80902943      -2.44305024       0.00282235
C        1.43684536      -2.42075973       0.00211941
N        0.71460404      -1.26116992       0.00130684
C       -1.55242044       2.45825553       0.00224118
C       -2.92454882       2.48307025       0.00203999
B       -3.64219372       1.18019221       0.00076166
C       -0.78138859       1.26852804       0.00151693
C        2.95532715      -0.02764655       0.00243246
B        1.43547736      -0.00755969       0.00173719
C        1.46307260       2.43672555       0.00203587
C        0.68321454       1.30672887       0.00169850
C        3.62607447       1.24051054       0.00266618
C        2.90050089       2.39692078       0.00243752
N       -2.81890494      -0.02677752      -0.00003433
C       -1.41985245       0.01938227       0.00055936
C       -1.42451441      -2.42603562      -0.00192520
C       -0.71140551      -1.26073103      -0.00001366
C       -3.48955980      -1.23427877      -0.00162333
H        4.67296992      -1.34324564       0.00336813
H        3.29851575      -3.41787289       0.00346150
H        0.89673320      -3.36393653       0.00237965
H       -0.99677115       3.39957135       0.00304863
H       -3.42879238       3.45214993       0.00271760
H       -4.83335207       1.00666922       0.00021474
H        1.01328067       3.43418780       0.00204796
H        4.72003497       1.28178711       0.00308087
H        3.42742677       3.35449572       0.00264458
H       -0.92568356      -3.39127528      -0.00288223
H       -4.57444189      -1.14958689      -0.00199695
C       -2.84325865      -2.41757427      -0.00273242
H       -3.40541959      -3.35065840      -0.00415987
