32
Properties=species:S:1:pos:R:3 Energy=-775.282902916062  
C        3.65406959      -1.24672924      -0.00133716
C        2.99570571      -2.43000024      -0.00260418
B        1.45860816      -2.49423633      -0.00268046
N        0.67388141      -1.28525391      -0.00100142
C       -1.44593424       2.43515465      -0.00305861
C       -2.85513505       2.43413817      -0.00350593
C       -3.54620903       1.25603740      -0.00225630
C       -0.73107375       1.25597860      -0.00141448
C        2.92358907       0.00076816      -0.00031581
B        1.39660985      -0.03598472      -0.00049183
C        1.42161742       2.39046302       0.00115672
N        0.69496137       1.22838746      -0.00020149
C        3.54459157       1.22511475       0.00074866
C        2.78519655       2.42213567       0.00166564
C       -2.85288654       0.01774979      -0.00087645
C       -1.42411313       0.00120015      -0.00078147
C       -1.49606656      -2.42324501       0.00148153
C       -0.74643752      -1.26284496      -0.00006490
C       -3.57357048      -1.20107366       0.00039465
H        4.75096926      -1.20193997      -0.00115752
H        3.58354253      -3.35259446      -0.00353106
H        0.91474035      -3.56616089      -0.00426196
H       -0.94531079       3.39944797      -0.00409073
H       -3.38470754       3.38884566      -0.00477867
H       -4.63783608       1.24500489      -0.00239094
H        0.86903308       3.32549685       0.00204821
H        4.63806920       1.29375664       0.00096280
H        3.27969442       3.39373568       0.00282615
H       -0.99061324      -3.38435398       0.00241987
H       -4.66468828      -1.16721333       0.00037152
C       -2.90145350      -2.39310730       0.00172924
H       -3.45053948      -3.33708678       0.00290716
