32
Properties=species:S:1:pos:R:3 Energy=-775.240298507927  
C        3.60953313      -1.18844974       0.00126287
B        2.88704755      -2.48307148       0.00129684
N        1.43828004      -2.41744317       0.00060755
C        0.72546184      -1.28197257      -0.00003176
C       -1.51236022       2.43516589      -0.00197514
C       -2.91844630       2.41460827      -0.00260228
C       -3.58030785       1.21563168      -0.00262840
C       -0.75116690       1.27867588      -0.00137761
N        2.92710026       0.00106554       0.00060948
B        1.47044339       0.02192961      -0.00004342
C        1.48309389       2.47996414      -0.00077247
C        0.72341398       1.32925162      -0.00075209
C        3.57909024       1.21128357       0.00054055
C        2.89950017       2.39831567      -0.00011936
C       -2.85631416      -0.00448993      -0.00201758
C       -1.43009205       0.00781896      -0.00137053
C       -1.48170949      -2.43123144      -0.00080064
C       -0.73900848      -1.26104570      -0.00073688
C       -3.56086320      -1.23645274      -0.00204839
H        4.69842242      -1.08613812       0.00173175
H        3.40300848      -3.57073168       0.00183732
H        0.92358638      -3.29417783       0.00059784
H       -1.00943677       3.40289582      -0.00196229
H       -3.47302340       3.35509057      -0.00307154
H       -4.67189412       1.17774377      -0.00311248
H        1.03844954       3.47873344      -0.00128095
H        4.67029480       1.17095586       0.00104656
H        3.48835575       3.31739524      -0.00014093
H       -0.97961687      -3.40105718      -0.00033099
H       -4.65292722      -1.21380691      -0.00254933
C       -2.88695796      -2.42931208      -0.00145655
H       -3.43001503      -3.37617386      -0.00148632
