32
Properties=species:S:1:pos:R:3 Energy=-775.253088922336  
N        3.55967886      -1.36498362      -0.00154214
C        2.82624317      -2.50084282      -0.00104098
C        1.45909976      -2.46847590      -0.00011778
C        0.73185957      -1.24370323       0.00034179
C       -1.48009522       2.42739214       0.00130731
C       -2.88546539       2.42268238       0.00219466
C       -3.57364481       1.23721988       0.00285498
C       -0.73775982       1.25689929       0.00109338
B        2.96515128      -0.06237421      -0.00115964
C        1.43880129      -0.03981942      -0.00017336
C        1.45965556       2.39921203      -0.00007216
C        0.74240199       1.23947316       0.00026076
B        3.75534061       1.41115572      -0.00157562
N        2.84079400       2.49121065      -0.00090581
C       -2.86906952       0.00894159       0.00260178
C       -1.44180377       0.00920578       0.00169024
C       -1.48059171      -2.41753333       0.00198887
C       -0.74686288      -1.24518410       0.00136711
C       -3.57018651      -1.22512412       0.00322362
H        4.56741302      -1.47637681      -0.00219507
H        3.36572765      -3.45091872      -0.00139168
H        0.94198450      -3.42502144       0.00025750
H       -0.97813514       3.39446544       0.00076712
H       -3.42305530       3.37335863       0.00234782
H       -4.66566295       1.22059031       0.00355581
H        0.95266022       3.36378819       0.00034004
H        4.93154225       1.70054803      -0.00228887
H        3.18112811       3.44650132      -0.00101150
H       -0.97487219      -3.38176487       0.00175341
H       -4.66244272      -1.20709401       0.00393217
C       -2.88871301      -2.41229577       0.00293137
H       -3.42927357      -3.36105564       0.00341242
