32
Properties=species:S:1:pos:R:3 Energy=-775.237258578971  
N        3.56079521      -1.19422839      -0.00152501
B        2.95885595      -2.47175925      -0.00181862
C        1.43880679      -2.48631976      -0.00180618
C        0.75252027      -1.29549483      -0.00141054
C       -1.49489899       2.35588199      -0.00100799
C       -2.88935855       2.40642959      -0.00098440
C       -3.58590565       1.22630293      -0.00100303
N       -0.80442165       1.21878190      -0.00109689
C        2.86072250      -0.00166751      -0.00132662
C        1.44409006      -0.03465159      -0.00123587
C        1.49840992       2.55384057      -0.00112487
B        0.72911854       1.28178764      -0.00113255
C        3.55823064       1.21908384      -0.00124102
C        2.89129303       2.44061238      -0.00115580
C       -2.88895280      -0.00422491      -0.00104287
C       -1.46204646      -0.00126627      -0.00112124
C       -1.49710854      -2.39934636      -0.00096406
C       -0.73919189      -1.23804725      -0.00117970
C       -3.59528860      -1.22948278      -0.00095633
H        4.56947690      -1.09232083      -0.00153377
H        3.66861991      -3.44874474      -0.00203723
H        0.89443982      -3.43165717      -0.00211427
H       -0.89698693       3.26519279      -0.00094130
H       -3.38845455       3.37527782      -0.00093091
H       -4.67790697       1.21510841      -0.00096976
H        1.10082825       3.57424843      -0.00114113
H        4.65165652       1.19839525      -0.00128270
H        3.50699392       3.34702424      -0.00113399
H       -0.98060177      -3.35715995      -0.00084395
H       -4.68663103      -1.20926204      -0.00091498
C       -2.90140518      -2.40954964      -0.00087871
H       -3.43038174      -3.36430999      -0.00075030
