32
Properties=species:S:1:pos:R:3 Energy=-775.247838278480  
N        3.58748919      -1.27929219      -0.00183622
C        2.90126845      -2.43783890      -0.00131742
C        1.53045572      -2.46433432      -0.00044926
C        0.75204592      -1.27711014      -0.00009303
C       -1.44620359       2.41329003      -0.00036120
C       -2.82498725       2.44193032       0.00035543
C       -3.59247320       1.26285450       0.00147205
N       -0.72715971       1.26351099       0.00002252
B        2.92830756       0.00380382      -0.00155667
C        1.40225996      -0.02711060      -0.00073085
C        1.44221160       2.40942875      -0.00063215
C        0.71299460       1.24559910      -0.00047113
C        3.65832415       1.33744829      -0.00190344
C        2.87401936       2.45207065      -0.00134470
C       -2.96286928       0.02753327       0.00176171
B       -1.44759342       0.00865154       0.00093812
C       -1.49057858      -2.44769646       0.00188481
C       -0.71187306      -1.31516324       0.00096653
C       -3.63583414      -1.23727637       0.00272079
H        4.59910755      -1.34804189      -0.00239236
H        3.47948511      -3.36536666      -0.00158719
H        1.04090860      -3.43701846      -0.00002587
H       -0.90043373       3.35434400      -0.00136315
H       -3.31216361       3.41771460      -0.00003015
H       -4.68572331       1.34335222       0.00203312
H        0.94017472       3.37503740      -0.00016158
H        4.74591985       1.46610845      -0.00247076
H        3.32386321       3.45100610      -0.00143474
H       -1.03522302      -3.44352170       0.00195103
H       -4.73067514      -1.27232899       0.00338154
C       -2.92413075      -2.40614093       0.00278613
H       -3.46015249      -3.35815156       0.00351815
