32
Properties=species:S:1:pos:R:3 Energy=-775.191399065513  
C        3.56214016      -1.28166611      -0.00098003
C        2.78435897      -2.45373487      -0.00202693
C        1.40926901      -2.41233704      -0.00198001
N        0.71002865      -1.24838297      -0.00088501
C       -1.55251727       2.47832778       0.00149768
C       -2.98614261       2.39106010       0.00130942
C       -3.66136654       1.20480465       0.00055411
C       -0.73266384       1.37713810       0.00088517
C        2.94801343      -0.04193003       0.00006762
B        1.42774849       0.02190244       0.00011170
C        1.55245619       2.47819002       0.00193023
C        0.73250503       1.37707338       0.00106358
C        3.66119476       1.20448232       0.00107634
C        2.98607339       2.39079609       0.00196040
C       -2.94829601      -0.04167091      -0.00012210
B       -1.42802539       0.02202800      -0.00002977
C       -1.40975860      -2.41221332      -0.00132853
N       -0.71041614      -1.24832036      -0.00078769
C       -3.56253124      -1.28135324      -0.00082425
H        4.65410860      -1.37234446      -0.00105374
H        3.25789114      -3.43593867      -0.00294782
H        0.86595535      -3.35120559      -0.00292283
H       -1.12367600       3.48631646       0.00217844
H       -3.55171765       3.32625183       0.00182454
H       -4.75618953       1.20104634       0.00047655
H        1.12370323       3.48621595       0.00262810
H        4.75601750       1.20062743       0.00110925
H        3.55173030       3.32593844       0.00270532
H       -0.86652680      -3.35112925      -0.00170339
H       -4.65450760      -1.37193714      -0.00091122
C       -2.78485217      -2.45349029      -0.00137623
H       -3.25847044      -3.43565272      -0.00183968
