32
Properties=species:S:1:pos:R:3 Energy=-775.288191682427  
C        3.59169287      -1.20909213      -0.00364632
C        2.98347336      -2.41023364      -0.00284416
B        1.45554381      -2.50661890      -0.00222678
N        0.69745729      -1.28878016      -0.00264882
C       -1.51604278       2.45228639      -0.00061298
C       -2.92126691       2.42824873       0.00013088
C       -3.58121607       1.22808873      -0.00028418
C       -0.76519104       1.29072838      -0.00170824
N        2.86823435      -0.02442126      -0.00375542
B        1.41495226      -0.03705433      -0.00308582
C        1.47641606       2.43520275      -0.00370407
C        0.70447146       1.30356907      -0.00283519
C        3.54818230       1.17517883      -0.00448565
C        2.90217658       2.36750718      -0.00453896
C       -2.86370714       0.00433163      -0.00127370
C       -1.43373110       0.01889033      -0.00183234
C       -1.47301991      -2.40939369      -0.00310379
C       -0.73624038      -1.24162771      -0.00253046
C       -3.56890202      -1.22523399      -0.00172445
H        4.67913219      -1.08117701      -0.00420193
H        3.62312184      -3.29492915      -0.00272467
H        0.92483013      -3.58322554      -0.00136407
H       -1.01147293       3.41901182      -0.00031495
H       -3.47863777       3.36727495       0.00098726
H       -4.67278462       1.19043017       0.00016328
H        1.02620187       3.43158591      -0.00378335
H        4.63797442       1.10601322      -0.00501270
H        3.49226386       3.28428934      -0.00518833
H       -0.95687560      -3.36469003      -0.00383282
H       -4.66066001      -1.20725567      -0.00132073
C       -2.88032282      -2.40584409      -0.00271837
H       -3.41200271      -3.35963147      -0.00318243
