32
Properties=species:S:1:pos:R:3 Energy=-775.224520831825  
C        3.57210310      -1.21181121       0.00000886
N        2.94462929      -2.40079278      -0.00133695
B        1.51530519      -2.55813252      -0.00191414
C        0.72719710      -1.27450223      -0.00092994
C       -1.51000409       2.37346802       0.00056641
C       -2.90239300       2.41640793       0.00005718
C       -3.59856517       1.23476793      -0.00077336
N       -0.81539146       1.23325843       0.00032883
C        2.86804136      -0.01808364       0.00088833
C        1.42502949      -0.05245357       0.00033084
C        1.49849608       2.53346121       0.00288297
B        0.71173937       1.29037788       0.00123581
C        3.57580192       1.23090822       0.00236208
C        2.91618009       2.43145166       0.00333992
C       -2.90243340       0.00328754      -0.00118823
C       -1.47233193       0.01214833      -0.00067780
C       -1.49883174      -2.39339213      -0.00211784
C       -0.73958596      -1.22292151      -0.00123410
C       -3.60240483      -1.22370204      -0.00211366
H        4.66552683      -1.21835909       0.00038426
H        3.54356668      -3.21875021      -0.00194344
H        1.10949011      -3.69315248      -0.00315088
H       -0.91636517       3.28506372       0.00121583
H       -3.40511314       3.38363673       0.00033474
H       -4.69050750       1.22358917      -0.00116236
H        1.10452906       3.55557375       0.00388412
H        4.66857077       1.20528933       0.00274052
H        3.51779382       3.34667870       0.00453645
H       -0.96711955      -3.34345818      -0.00251635
H       -4.69363130      -1.20927049      -0.00247654
C       -2.89822902      -2.40262847      -0.00254569
H       -3.42625471      -3.35853247      -0.00324965
