32
Properties=species:S:1:pos:R:3 Energy=-775.294228004304  
B        3.69160890      -1.26569058      -0.00058065
N        2.91924727      -2.45378890      -0.00063191
C        1.54991920      -2.43249699      -0.00064401
C        0.81063148      -1.28783269      -0.00062292
C       -1.47628331       2.44376862      -0.00084697
C       -2.87453737       2.44030030      -0.00088657
C       -3.58645337       1.25566698      -0.00085862
C       -0.75231228       1.25044682      -0.00080091
C        2.90521072       0.04508330      -0.00061206
C        1.48352964       0.00663308      -0.00065711
C        1.45986093       2.42203261      -0.00088982
C        0.73993096       1.22875796      -0.00077775
C        3.57129916       1.28377571      -0.00068157
C        2.85635208       2.46350431      -0.00083387
C       -2.89318357       0.03263465      -0.00077477
C       -1.47685492       0.03220145      -0.00075704
N       -1.55276756      -2.47141133      -0.00045464
B       -0.73661868      -1.30229229      -0.00061255
C       -3.59461103      -1.23233626      -0.00067688
H        4.89432756      -1.34677856      -0.00053182
H        3.35421729      -3.36859376      -0.00067980
H        1.07010245      -3.41594986      -0.00069141
H       -0.97172934       3.40865633      -0.00083853
H       -3.40728078       3.39425895      -0.00093313
H       -4.67895643       1.26298164      -0.00088484
H        0.92818461       3.37272226      -0.00104016
H        4.66402633       1.29931175      -0.00062328
H        3.36755706       3.42844010      -0.00092026
H       -1.16141500      -3.40509145      -0.00023497
H       -4.68548968      -1.23822864      -0.00072324
C       -2.92836553      -2.40844743      -0.00050756
H       -3.46055743      -3.36234498      -0.00040620
