32
Properties=species:S:1:pos:R:3 Energy=-775.232782373878  
C        3.53386760      -1.23469849       0.00139370
N        2.90658314      -2.40548306       0.00094132
B        1.47958584      -2.52215947       0.00056387
C        0.72590671      -1.22240573       0.00073386
C       -1.56255200       2.44338128      -0.00238757
C       -2.97044137       2.41742704      -0.00305729
C       -3.63625830       1.21757573      -0.00226254
C       -0.81257377       1.27905557      -0.00101379
C        2.83624322      -0.02639939       0.00131213
N        1.43042938      -0.02343905       0.00076601
C        1.59138945       2.51299735       0.00077308
B        0.74100032       1.28937945       0.00017138
C        3.58651250       1.16884664       0.00172298
C        2.97732251       2.40939478       0.00153694
C       -2.91865382      -0.00603896      -0.00089563
C       -1.49219872       0.02931089      -0.00040841
C       -1.46046703      -2.39149587       0.00177641
C       -0.74713656      -1.19658842       0.00072846
C       -3.58753427      -1.25451129       0.00003459
H        4.62424860      -1.21935826       0.00178622
H        3.49144918      -3.23530186       0.00089057
H        1.03393056      -3.63298476       0.00006262
H       -1.05633588       3.41081841      -0.00294680
H       -3.53021037       3.35555795      -0.00416241
H       -4.72846476       1.18477566      -0.00266898
H        1.15965631       3.51733227       0.00064121
H        4.67278916       1.07310991       0.00216438
H        3.61129787       3.30185595       0.00195570
H       -0.92562254      -3.33803864       0.00289463
H       -4.67990898      -1.27149237      -0.00032066
C       -2.86456893      -2.42075275       0.00143502
H       -3.37585607      -3.38579611       0.00228036
