32
Properties=species:S:1:pos:R:3 Energy=-775.254800861966  
C        3.58383409      -1.22236120       0.00246276
N        2.94827437      -2.40681588       0.00202097
B        1.52280064      -2.54548514       0.00138853
C        0.72835360      -1.26114255       0.00124466
B       -1.51928866       2.54532759      -0.00079641
N       -2.94476266       2.40665961      -0.00150571
C       -3.58032245       1.22220416      -0.00137339
C       -0.72484393       1.26098397       0.00018170
C        2.88125633      -0.03161589       0.00223155
C        1.43322758      -0.04578928       0.00153288
C        1.49140769       2.38913824       0.00170249
C        0.74565941       1.23132921       0.00115151
C        3.59373452       1.21132685       0.00271273
C        2.91195609       2.38720041       0.00249389
C       -2.87774553       0.03145875      -0.00060818
C       -1.42971774       0.04563161       0.00010359
C       -1.48789934      -2.38929536       0.00087697
C       -0.74214874      -1.23148694       0.00075549
C       -3.59022616      -1.21148415      -0.00049810
H        4.67631599      -1.22767229       0.00300041
H        3.53878523      -3.23113064       0.00216172
H        1.10247269      -3.67287254       0.00098709
H       -1.09895906       3.67271437      -0.00109983
H       -3.53527372       3.23097425      -0.00216180
H       -4.67280430       1.22751590      -0.00190047
H        0.97529294       3.34835290       0.00149620
H        4.68615459       1.19016909       0.00326134
H        3.44687909       3.33906513       0.00289515
H       -0.97178478      -3.34850960       0.00144363
H       -4.68264616      -1.19032266      -0.00102768
C       -2.90844728      -2.38735710       0.00026618
H       -3.44337073      -3.33922208       0.00039013
