32
Properties=species:S:1:pos:R:3 Energy=-775.269020134854  
N        3.54226313      -1.20057046      -0.00052686
B        2.94290304      -2.47258842      -0.00117248
C        1.43085417      -2.43359110      -0.00151153
C        0.75649714      -1.25213652      -0.00111016
C       -1.53533507       2.42560479      -0.00058682
C       -2.94516220       2.40958937      -0.00082522
C       -3.61396665       1.21319057      -0.00116653
C       -0.79218104       1.25958475      -0.00071267
C        2.85860150      -0.00464817      -0.00032391
N        1.46745381      -0.01713940      -0.00058353
C        1.58358406       2.53223986       0.00006941
B        0.75955076       1.27601337      -0.00039956
C        3.57840719       1.17283902       0.00011935
C        2.94908798       2.43002222       0.00031170
C       -2.90088105      -0.01388639      -0.00129039
C       -1.47443648       0.01212246      -0.00108354
C       -1.45892873      -2.39945219      -0.00144932
C       -0.73940571      -1.21450094      -0.00121713
C       -3.57921595      -1.25512867      -0.00158782
H        4.54820576      -1.08463266      -0.00025005
H        3.63754642      -3.45518244      -0.00136428
H        0.85415096      -3.35344890      -0.00202530
H       -1.02438577       3.39009639      -0.00028642
H       -3.49927661       3.35069420      -0.00072071
H       -4.70620812       1.18354152      -0.00133852
H        1.14017047       3.53048010       0.00021857
H        4.66674639       1.09792590       0.00030088
H        3.58775556       3.31968531       0.00064783
H       -0.94741184      -3.35876453      -0.00147165
H       -4.67165048      -1.26456261      -0.00174533
C       -2.86494778      -2.42480436      -0.00164493
H       -3.37861974      -3.38810665      -0.00184109
