32
Properties=species:S:1:pos:R:3 Energy=-775.248509440931  
C        3.59749266      -1.21877549       0.00155529
C        2.93333984      -2.44825052       0.00070607
C        1.55465078      -2.52003539       0.00009111
B        0.75850859      -1.25338739       0.00034581
C       -1.55633672       2.51576502       0.00066666
C       -2.93502469       2.44398308       0.00003165
C       -3.59917431       1.21450571      -0.00063041
B       -0.76018869       1.24912084       0.00064282
C        2.90261602      -0.01460923       0.00179895
N        1.50944481       0.00117309       0.00119858
C        1.51697092       2.39285902       0.00227286
C        0.81515202       1.21990600       0.00141010
C        3.60665267       1.23134735       0.00267988
C        2.93689655       2.41044023       0.00293175
C       -2.90429543       0.01034115      -0.00071288
N       -1.51112398      -0.00544190      -0.00012200
C       -1.51864935      -2.39712840      -0.00090392
C       -0.81683211      -1.22417507      -0.00024874
C       -3.60833128      -1.23561764      -0.00140107
H        4.68672621      -1.17240023       0.00205048
H        3.54015745      -3.35980698       0.00053996
H        1.10569162      -3.51578797      -0.00056101
H       -1.10736969       3.51151366       0.00115276
H       -3.54184321       3.35554249       0.00003973
H       -4.68840810       1.16812762      -0.00110995
H        0.96924375       3.33323006       0.00244964
H        4.69644615       1.18950024       0.00314276
H        3.47432394       3.36065702       0.00362400
H       -0.97091812      -3.33749928      -0.00097953
H       -4.69812430      -1.19376983      -0.00184634
C       -2.93857506      -2.41470993      -0.00149095
H       -3.47600273      -3.36492827      -0.00201366
