32
Properties=species:S:1:pos:R:3 Energy=-775.241677826734  
N        3.59186220      -1.17395162      -0.00264496
B        3.08099406      -2.47169858      -0.00779175
B        1.40922769      -2.51064448      -0.00944816
N        0.69881429      -1.26737074      -0.00376610
C       -1.46075417       2.42875075      -0.00582350
C       -2.86813045       2.43372948      -0.00650559
C       -3.56061510       1.25342571      -0.00428097
C       -0.74189611       1.24846559      -0.00346950
C        2.82818197      -0.01037310      -0.00059161
C        1.40714483      -0.03298566      -0.00158286
C        1.46139009       2.40286270       0.00144522
C        0.73152109       1.21047717      -0.00113996
C        3.51882372       1.20465585       0.00210770
C        2.84598610       2.41035813       0.00329168
C       -2.87050113       0.01440389      -0.00183442
C       -1.44157806       0.00829319      -0.00224866
C       -1.48513830      -2.40416101       0.00368778
C       -0.74309443      -1.23713922      -0.00077912
C       -3.58134268      -1.20800758       0.00134981
H        4.59108828      -0.99470499      -0.00094874
H        3.86832661      -3.38628966      -0.00982151
H        0.78568459      -3.53092547      -0.01487219
H       -0.94855444       3.38871063      -0.00708251
H       -3.40000166       3.38734336      -0.00844439
H       -4.65261359       1.24360278      -0.00423126
H        0.93587246       3.35474847       0.00215760
H        4.61126941       1.17821974       0.00306490
H        3.39580853       3.35287952       0.00541936
H       -0.98652940      -3.36587521       0.00644974
H       -4.67293724      -1.18869001       0.00172833
C       -2.89108682      -2.38907141       0.00459214
H       -3.42411414      -3.34209211       0.00784454
