32
Properties=species:S:1:pos:R:3 Energy=-775.247124190252  
N        3.56320571      -1.30377117      -0.00080477
C        2.84727531      -2.43392873      -0.00113102
C        1.46462740      -2.41783924      -0.00086799
C        0.71408556      -1.22630755      -0.00026321
C       -1.51631359       2.41396973       0.00061988
C       -2.92124494       2.39878751       0.00074899
C       -3.60465386       1.20881024       0.00074980
C       -0.76455938       1.24544697       0.00048272
B        2.92635215      -0.00914525      -0.00022399
C        1.39722554       0.02361332      -0.00000601
B        1.51767594       2.52521542       0.00091101
C        0.70363739       1.26302999       0.00044837
C        3.68668046       1.28733511       0.00017920
N        2.96419425       2.41577660       0.00072279
C       -2.89209327      -0.01653968       0.00056916
C       -1.46506792      -0.00454214       0.00038297
C       -1.48115206      -2.43415690       0.00016553
C       -0.75842537      -1.24954225       0.00010680
C       -3.57845199      -1.25629525       0.00057584
H        4.57281784      -1.40215554      -0.00099816
H        3.39188978      -3.38096506      -0.00161421
H        0.96942594      -3.38653431      -0.00117720
H       -0.99781371       3.37190819       0.00064169
H       -3.46642781       3.34540192       0.00086390
H       -4.69665325       1.18554872       0.00088247
H        1.10653759       3.65868792       0.00147435
H        4.77505579       1.41350082       0.00007777
H        3.48910135       3.28644956       0.00102671
H       -0.96534068      -3.39348801       0.00003742
H       -4.67105337      -1.25075271       0.00073036
C       -2.88576074      -2.44094363       0.00040825
H       -3.41951595      -3.39348583       0.00044773
