32
Properties=species:S:1:pos:R:3 Energy=-775.261391887897  
B        3.65187486      -1.28197330      -0.00626763
N        2.86324146      -2.45428486      -0.00556485
C        1.49465547      -2.41812844      -0.00397328
C        0.76227224      -1.26720393      -0.00287482
C       -1.48974185       2.45795275       0.00144650
C       -2.91484325       2.38002534       0.00317720
C       -3.57993564       1.19289899       0.00340273
C       -0.71975900       1.32068375      -0.00003636
C        2.87795012       0.03557866      -0.00501327
C        1.45415730       0.02865112      -0.00326494
C        1.50413019       2.45685207      -0.00246742
C        0.75670130       1.28067664      -0.00193914
C        3.57476064       1.25807941      -0.00548100
C        2.89914225       2.46173592      -0.00423741
N       -2.90132512      -0.00591833       0.00197876
B       -1.45126205      -0.00386489       0.00025569
C       -1.48335357      -2.46435478      -0.00103499
C       -0.71346522      -1.32645678      -0.00125589
C       -3.57841677      -1.20587601       0.00214656
H        4.85356588      -1.37591189      -0.00772995
H        3.28141402      -3.37660170      -0.00621495
H        0.99826756      -3.38934686      -0.00359012
H       -1.05027246       3.45951231       0.00136671
H       -3.50285806       3.29909640       0.00436421
H       -4.67061880       1.13547410       0.00470161
H        0.98238887       3.41512228      -0.00145608
H        4.66736341       1.23979157      -0.00684497
H        3.44155898       3.40954491      -0.00460551
H       -1.04659929      -3.46791094      -0.00215937
H       -4.66913302      -1.15134604       0.00348102
C       -2.90868225      -2.39011038       0.00069259
H       -3.49305280      -3.31154326       0.00086778
