32
Properties=species:S:1:pos:R:3 Energy=-775.241028863858  
C        3.59735243      -1.16495104      -0.00397287
N        2.98727403      -2.33833208      -0.00500431
B        1.53064105      -2.56618374      -0.00442051
C        0.69255268      -1.34056497      -0.00246228
C       -1.51150693       2.44090638       0.00282132
C       -2.91574828       2.43879745       0.00362439
C       -3.59130450       1.24583246       0.00282029
C       -0.76990338       1.27004333       0.00122576
N        2.91054161      -0.02609576      -0.00224767
B        1.41989906      -0.04925975      -0.00142971
C        1.46752250       2.44060678       0.00141626
C        0.70594976       1.30638192       0.00049524
C        3.58496384       1.19906424      -0.00118026
C        2.90337701       2.36504566       0.00055788
C       -2.88915730       0.01439527       0.00115621
C       -1.46000436       0.00385670       0.00030145
C       -1.54240566      -2.42536884      -0.00219652
C       -0.77593448      -1.26936543      -0.00146293
C       -3.61377913      -1.20653377       0.00033952
H        4.69022380      -1.12194016      -0.00453061
H        3.61095497      -3.13838787      -0.00630773
H        1.22520999      -3.73463959      -0.00564817
H       -0.99592871       3.40214011       0.00348871
H       -3.45962319       3.38577085       0.00490031
H       -4.68374919       1.22381843       0.00344110
H        1.02999761       3.44233973       0.00282019
H        4.67575862       1.15235902      -0.00183177
H        3.48329342       3.28989562       0.00133889
H       -1.02914672      -3.38778672      -0.00352915
H       -4.70554678      -1.16864062       0.00103705
C       -2.94850777      -2.40363298      -0.00130222
H       -3.50292462      -3.34492511      -0.00194309
