32
Properties=species:S:1:pos:R:3 Energy=-775.267474871958  
C        3.58778994      -1.23024830      -0.00002980
C        2.90987995      -2.40043495       0.00024693
N        1.53520791      -2.45577556       0.00067463
B        0.72369000      -1.28149254       0.00089656
C       -1.44474464       2.40478849       0.00266928
C       -2.86001008       2.41174599       0.00328171
C       -3.51587524       1.22915051       0.00296963
C       -0.72635503       1.23660872       0.00177407
C        2.89521982       0.04024559       0.00013867
C        1.47884835       0.04501265       0.00072269
C        1.48301366       2.45905293       0.00039175
C        0.76139930       1.26210211       0.00095399
C        3.58785703       1.26197485      -0.00028736
C        2.87906058       2.45116191      -0.00020416
N       -2.85204343       0.02238819       0.00220672
C       -1.45690391      -0.02556696       0.00170686
C       -1.58267644      -2.46397691       0.00102801
C       -0.81516061      -1.27394248       0.00119673
B       -3.67334417      -1.19321689       0.00201434
H        4.67843381      -1.24566129      -0.00039406
H        3.43614542      -3.35776791       0.00012876
H        1.13351082      -3.38524997       0.00078422
H       -0.92932701       3.36367856       0.00293639
H       -3.41875776       3.34715019       0.00396220
H       -4.60196661       1.15172050       0.00332452
H        0.98007827       3.42525199       0.00034231
H        4.68037381       1.26857026      -0.00073557
H        3.41559002       3.40279739      -0.00062977
H       -1.03108138      -3.41281354       0.00058906
H       -4.86524049      -1.01953460       0.00245736
C       -2.95796245      -2.49655001       0.00134397
H       -3.46273278      -3.46538216       0.00113623
