32
Properties=species:S:1:pos:R:3 Energy=-775.298228848990  
N        3.60331157      -1.25388611      -0.00277293
B        2.95207461      -2.50133287      -0.00235630
C        1.43054040      -2.42670724      -0.00168792
C        0.73473440      -1.25544940      -0.00155125
C       -1.45298738       2.41134959      -0.00057723
C       -2.85945275       2.42296758      -0.00009348
C       -3.56317749       1.24740624       0.00005479
C       -0.73291849       1.22867597      -0.00086630
B        2.89809410      -0.01290741      -0.00239875
N        1.42348753      -0.01898697      -0.00179578
C        1.45245239       2.38110479      -0.00137711
C        0.74667144       1.20707053      -0.00135184
C        3.62016581       1.32312117      -0.00251803
C        2.87263076       2.45448026      -0.00195262
C       -2.87614644       0.00933995      -0.00030038
C       -1.44934797      -0.00096490      -0.00075055
C       -1.48620412      -2.41215008      -0.00117463
C       -0.75020181      -1.24024192      -0.00114490
C       -3.57953794      -1.21933030      -0.00026249
H        4.61586686      -1.20636088      -0.00322867
H        3.57881701      -3.53357503      -0.00255463
H        0.84794407      -3.34491678      -0.00135818
H       -0.94249782       3.37166339      -0.00074342
H       -3.38315249       3.38090603       0.00014288
H       -4.65525474       1.24631703       0.00041658
H        0.90258707       3.31725307      -0.00093911
H        4.71180010       1.39964684      -0.00296512
H        3.32927012       3.44937405      -0.00192100
H       -0.98490899      -3.37721386      -0.00158386
H       -4.67157266      -1.20286810       0.00009609
C       -2.89269587      -2.40486242      -0.00071404
H       -3.42996065      -3.35524410      -0.00073412
