32
Properties=species:S:1:pos:R:3 Energy=-775.268991010333  
N        3.59416324      -1.32122487       0.00363596
C        2.91177505      -2.44270722       0.00341273
N        1.58258946      -2.47562959       0.00195649
B        0.73808649      -1.26386474       0.00049606
C       -1.47905182       2.39966989      -0.00290510
C       -2.88693950       2.41688239      -0.00434986
C       -3.58915541       1.24147990      -0.00487466
C       -0.74382744       1.22693571      -0.00197361
B        2.96184318       0.03413479       0.00232048
C        1.46524883       0.02823817       0.00078064
C        1.47972309       2.43991120      -0.00048890
C        0.74899921       1.25799595      -0.00055019
C        3.70252346       1.34319283       0.00238696
C        2.90001799       2.46671154       0.00093900
C       -2.89725928       0.00407741      -0.00389807
C       -1.47044991      -0.02202343      -0.00238508
C       -1.56849629      -2.45477188      -0.00180506
C       -0.80944479      -1.29982971      -0.00128585
C       -3.62269333      -1.21757953      -0.00438073
H        4.60387753      -1.42493321       0.00477732
H        3.45424128      -3.39365437       0.00445101
H        1.17759076      -3.40564847       0.00192856
H       -0.95993588       3.35745367      -0.00250248
H       -3.41074367       3.37520131      -0.00504714
H       -4.68166312       1.23778056      -0.00600882
H        0.97564414       3.40695632      -0.00161030
H        4.78850704       1.49067796       0.00341476
H        3.36261131       3.46076979       0.00084191
H       -1.07570134      -3.43329810      -0.00098190
H       -4.71470082      -1.17198394      -0.00557361
C       -2.97771152      -2.42664314      -0.00337896
H       -3.54633812      -3.35899482      -0.00377386
