32
Properties=species:S:1:pos:R:3 Energy=-775.277645841980  
C        3.56902144      -1.22983762       0.00155280
N        2.93997264      -2.42063555       0.00119725
B        1.51303696      -2.55030624       0.00005413
C        0.71506537      -1.26314519      -0.00076626
C       -1.47412257       2.43484964      -0.00288394
C       -2.87982624       2.43964719      -0.00404987
C       -3.57608200       1.25880171      -0.00456945
C       -0.74579488       1.25577499      -0.00225045
C        2.87342690      -0.04224024       0.00083117
C        1.42507381      -0.05985284      -0.00034442
C        1.45727990       2.38508224      -0.00078349
C        0.73474862       1.23090509      -0.00110070
B        3.63623171       1.27883033       0.00120068
N        2.83226923       2.43885717       0.00029917
C       -2.88361147       0.02322798      -0.00390891
C       -1.45627479       0.01439756      -0.00272369
C       -1.50106792      -2.40698676      -0.00250582
C       -0.75876986      -1.23768825      -0.00201070
C       -3.59106200      -1.20689565      -0.00438934
H        4.66205718      -1.23798649       0.00243702
H        3.53014629      -3.24514940       0.00178548
H        1.08664897      -3.67489483      -0.00015340
H       -0.96655586       3.39920927      -0.00247935
H       -3.41093414       3.39397082      -0.00453594
H       -4.66833544       1.25182005      -0.00547835
H        0.96120272       3.35503135      -0.00141215
H        4.83757192       1.37996623       0.00214905
H        3.23415508       3.36767764       0.00040585
H       -0.98428166      -3.36535126      -0.00195660
H       -4.68317750      -1.18545182      -0.00530748
C       -2.90867389      -2.39458739      -0.00369928
H       -3.45218363      -3.34208811      -0.00406676
