32
Properties=species:S:1:pos:R:3 Energy=-775.242405663069  
B        3.67227855      -1.19521814       0.00004743
C        2.92893565      -2.45921925       0.00048264
N        1.55696919      -2.46500930       0.00035882
B        0.75885876      -1.30083515      -0.00014336
C       -1.45592219       2.39828007      -0.00106165
C       -2.86286578       2.42314759      -0.00110699
C       -3.56918320       1.25017174      -0.00100820
C       -0.73389563       1.21720633      -0.00092721
N        2.87519116       0.05074802      -0.00049382
C        1.49242092       0.03250878      -0.00053389
C        1.46213555       2.44659089      -0.00157196
C        0.75795983       1.25347299      -0.00101039
C        3.53793265       1.24940914      -0.00097078
C        2.86717474       2.43575024      -0.00153264
C       -2.88775209       0.00789284      -0.00079251
C       -1.46068842      -0.02514520      -0.00070578
C       -1.55783676      -2.44650692      -0.00022038
C       -0.79406416      -1.29341351      -0.00036893
C       -3.61731993      -1.21018615      -0.00063210
H        4.86957153      -1.07227002       0.00007101
H        3.39901061      -3.44552902       0.00090981
H        1.11225873      -3.37849017       0.00065455
H       -0.94054630       3.35749325      -0.00112115
H       -3.38119867       3.38402762      -0.00122703
H       -4.66162960       1.25370642      -0.00106805
H        0.95299640       3.40807755      -0.00207172
H        4.62462600       1.18101626      -0.00089181
H        3.43106180       3.36918676      -0.00195167
H       -1.06707776      -3.42455623       0.00002025
H       -4.70893623      -1.16495986      -0.00071993
C       -2.96648607      -2.41592588      -0.00036450
H       -3.53243134      -3.34997825      -0.00024379
