32
Properties=species:S:1:pos:R:3 Energy=-771.829800056068  
C        3.57753962      -1.24299403      -0.00013134
C        2.96199726      -2.44489913      -0.00121219
B        1.44607364      -2.47661081      -0.00126385
N        0.71281426      -1.23525480       0.00010934
C       -1.47281535       2.43597164      -0.00071031
C       -2.88007080       2.42697722      -0.00072785
C       -3.56228089       1.23978638       0.00014884
C       -0.74433540       1.26142961       0.00007850
C        2.82786424      -0.01364265       0.00057406
C        1.40667611      -0.01457378       0.00049756
C        1.47189187       2.40855838       0.00125294
C        0.72759445       1.23028548       0.00063035
C        3.52966739       1.20355374       0.00118738
C        2.86400694       2.40983569       0.00158738
C       -2.86179237       0.00662049       0.00090170
C       -1.43362056       0.01429611       0.00063109
C       -1.45210614      -2.40200810       0.00244322
C       -0.72437893      -1.22622924       0.00107064
C       -3.56001272      -1.22431839       0.00198124
H        4.66885124      -1.14798113       0.00008422
H        3.56449732      -3.35639916      -0.00193663
H        0.86337234      -3.51981205      -0.00245814
H       -0.96643541       3.39969695      -0.00130645
H       -3.42146403       3.37520659      -0.00136308
H       -4.65413439       1.22064945       0.00029930
H        0.95382482       3.36605202       0.00151835
H        4.62133586       1.16924038       0.00130555
H        3.41258787       3.35301926       0.00209427
H       -0.94337629      -3.35893756       0.00317856
H       -4.65170474      -1.21593112       0.00222167
C       -2.85907450      -2.39908235       0.00285882
H       -3.38379964      -3.35667620       0.00387700
