32
Properties=species:S:1:pos:R:3 Energy=-775.276589954365  
C        3.58209588      -1.22103975      -0.00055129
N        2.93650243      -2.39419734      -0.00013277
B        1.50358007      -2.51461281      -0.00001596
C        0.71277535      -1.23085708      -0.00039559
N       -1.56859859       2.47984290      -0.00117548
C       -2.94405268       2.42120655      -0.00106006
C       -3.61465086       1.24602545      -0.00074523
B       -0.76246856       1.30538711      -0.00096845
C        2.88513784      -0.02497360      -0.00088806
C        1.43640222      -0.01631683      -0.00079707
C        1.55809112       2.42416584      -0.00154387
C        0.78978934       1.28634846      -0.00111987
C        3.62161496       1.20315353      -0.00133277
C        2.98066519       2.40258395      -0.00166235
C       -2.91931728      -0.02196923      -0.00049994
C       -1.50320714      -0.02191581      -0.00058130
C       -1.49679313      -2.43350808      -0.00002725
C       -0.77213530      -1.23819675      -0.00033075
C       -3.61099252      -1.24634670      -0.00018180
H        4.67490740      -1.23435546      -0.00061937
H        3.51563306      -3.22679715       0.00011311
H        1.08289781      -3.64105075       0.00039065
H       -1.16880900       3.41031487      -0.00140886
H       -3.47369706       3.37657963      -0.00123698
H       -4.70568160       1.25763490      -0.00067118
H        1.06885412       3.40379922      -0.00180679
H        4.71367926       1.15295566      -0.00139881
H        3.54252965       3.33831252      -0.00201085
H       -0.97418228      -3.38868510       0.00016190
H       -4.70359699      -1.25592534      -0.00011864
C       -2.89500228      -2.43021396       0.00004455
H       -3.42762435      -3.38456347       0.00028548
