32
Properties=species:S:1:pos:R:3 Energy=-775.297309890079  
C        3.55482630      -1.25346008      -0.00330162
C        2.87048721      -2.41631541      -0.00217910
N        1.48992971      -2.45124459      -0.00096428
B        0.70407713      -1.26862098      -0.00079527
C       -1.47664234       2.42628945       0.00034646
C       -2.91631125       2.39925437       0.00182107
C       -3.64235122       1.24469613       0.00276228
C       -0.69233060       1.30161618      -0.00026782
C        2.87696734       0.02549561      -0.00325352
C        1.46157320       0.06742568      -0.00194702
C        1.54435886       2.48851764      -0.00306414
C        0.78673358       1.31946588      -0.00179314
C        3.60861996       1.22849236      -0.00447058
C        2.94201430       2.43924809      -0.00439496
C       -2.97348871      -0.02574172       0.00232095
B       -1.45116105      -0.02783579       0.00078532
C       -1.50650213      -2.44908794       0.00133240
N       -0.77039284      -1.30660696       0.00041569
C       -3.61743527      -1.24994396       0.00320739
H        4.64536844      -1.27837753      -0.00424975
H        3.38023421      -3.38175105      -0.00218438
H        1.08134641      -3.37716518      -0.00017553
H       -1.02014467       3.42165771      -0.00026816
H       -3.43772246       3.35961912       0.00219089
H       -4.73668526       1.28844242       0.00386172
H        1.05224336       3.46204798      -0.00304646
H        4.70060070       1.19623270      -0.00548351
H        3.51110799       3.37204612      -0.00538689
H       -0.96901430      -3.40129784       0.00093809
H       -4.71249943      -1.30806997       0.00433013
C       -2.88005766      -2.45649195       0.00268568
H       -3.39620874      -3.41727970       0.00335535
