32
Properties=species:S:1:pos:R:3 Energy=-775.254845903972  
B        3.65690810      -1.25901996      -0.00095436
N        2.88948360      -2.44234627      -0.00181894
C        1.51888332      -2.43164912      -0.00138649
C        0.77167244      -1.29120113      -0.00026742
C       -1.43206511       2.40618219       0.00030013
C       -2.80897098       2.43550172       0.00036042
C       -3.57936724       1.25810492       0.00076996
N       -0.71344622       1.25261523       0.00066447
C        2.86096784       0.04893206       0.00026819
C        1.43921047       0.00907483       0.00033101
C        1.43726494       2.43880445       0.00230550
C        0.72273482       1.24739530       0.00108094
C        3.53685880       1.28193067       0.00126059
C        2.83406147       2.46644449       0.00239678
C       -2.95455749       0.02163467       0.00089411
B       -1.43593920      -0.00245354       0.00068851
C       -1.48448226      -2.45058669       0.00079284
C       -0.69685291      -1.32554984       0.00043189
C       -3.63345171      -1.23937033       0.00118024
H        4.85980477      -1.32743816      -0.00125276
H        3.32473698      -3.35694396      -0.00275330
H        1.03447093      -3.40872383      -0.00198107
H       -0.89076313       3.34865960      -0.00016817
H       -3.29413032       3.41242323       0.00004244
H       -4.67228734       1.34105800       0.00091105
H        0.92030012       3.39530398       0.00331831
H        4.62907309       1.28629855       0.00120513
H        3.35040195       3.42831864       0.00336793
H       -1.03987669      -3.45192880       0.00079234
H       -4.72797897      -1.27192282       0.00138898
C       -2.91893390      -2.40443117       0.00117743
H       -3.45360182      -3.35763413       0.00143273
