32
Properties=species:S:1:pos:R:3 Energy=-775.287986687829  
N        3.59528420      -1.34300734       0.00177337
C        2.84676253      -2.47311087       0.00304441
C        1.47771007      -2.46469906       0.00325510
C        0.74418751      -1.23566758       0.00213821
C       -1.58223386       2.45143756      -0.00058871
C       -2.99080586       2.41654092      -0.00020599
C       -3.63293745       1.20526002       0.00095488
C       -0.81316463       1.30207288       0.00019673
B        2.97722994      -0.04109656       0.00059287
C        1.45973654      -0.04602708       0.00086434
N        1.56697031       2.46214170      -0.00148027
B        0.74354901       1.29502768      -0.00021119
C        3.70571051       1.31147144      -0.00084278
C        2.95326487       2.43882213      -0.00175061
C       -2.89872071      -0.00941337       0.00178697
C       -1.47320232       0.02772509       0.00144690
C       -1.46603862      -2.39901106       0.00339948
C       -0.74512338      -1.21861049       0.00234444
C       -3.58012031      -1.25377368       0.00292752
H        4.60113820      -1.47059498       0.00173428
H        3.38851346      -3.42271004       0.00394071
H        0.98153809      -3.43272603       0.00436510
H       -1.09207873       3.43008062      -0.00154707
H       -3.56263470       3.34688679      -0.00084973
H       -4.72461518       1.15435603       0.00124708
H        1.16165619       3.38997610      -0.00222133
H        4.79062885       1.45194573      -0.00119901
H        3.41695240       3.43178320      -0.00278376
H       -0.94295453      -3.35433751       0.00402753
H       -4.67276506      -1.25701158       0.00316328
C       -2.87493616      -2.42675073       0.00369500
H       -3.39380159      -3.38735485       0.00455325
