32
Properties=species:S:1:pos:R:3 Energy=-775.191600434340  
C        3.62384512      -1.20158466       0.00183630
B        2.87600540      -2.50227302       0.00109464
N        1.47140085      -2.33755575       0.00062420
N        0.79375018      -1.18204620       0.00077864
C       -1.48283007       2.45543935       0.00135151
C       -2.88693914       2.43020333       0.00082783
C       -3.57139926       1.23448357       0.00008047
C       -0.75467749       1.27000526       0.00110920
C        2.91464566      -0.01129587       0.00198269
C        1.45959935      -0.01161437       0.00144245
C        1.47157157       2.40062541       0.00219426
C        0.72415674       1.24463632       0.00159487
C        3.59296584       1.25236297       0.00264544
C        2.88974476       2.41369050       0.00273086
C       -2.86972010       0.00446384      -0.00015227
C       -1.44570895       0.03368480       0.00037866
C       -1.46575622      -2.55006416      -0.00057353
B       -0.71221236      -1.27688281       0.00017073
C       -3.54855485      -1.24720065      -0.00088041
H        4.71410572      -1.12521658       0.00227105
H        3.30695594      -3.62211103       0.00084782
H        0.82149204      -3.11853808       0.00009692
H       -0.98755796       3.42635758       0.00196339
H       -3.43609442       3.37427191       0.00102975
H       -4.66437548       1.22587270      -0.00032407
H        0.95833025       3.36074053       0.00226564
H        4.68404010       1.24576667       0.00306113
H        3.40895008       3.37414185       0.00321705
H       -1.06544737      -3.57204243      -0.00078521
H       -4.64136815      -1.24231954      -0.00129366
C       -2.87346942      -2.45288270      -0.00107316
H       -3.47268914      -3.36955975      -0.00164630
