32
Properties=species:S:1:pos:R:3 Energy=-775.234695878799  
N        3.58232508      -1.31724485      -0.00002026
C        2.84227536      -2.44120579      -0.00020227
C        1.47207947      -2.41232514       0.00008485
C        0.71177751      -1.20988985       0.00057480
C       -1.52723080       2.55885501       0.00135244
C       -2.93087322       2.44032947       0.00152223
C       -3.58750358       1.22392823       0.00156442
B       -0.72755044       1.31088942       0.00122966
B        2.96225606      -0.01891771       0.00046521
C        1.44233294       0.00520127       0.00072101
C        1.51018728       2.36082559       0.00144531
N        0.79493557       1.24133850       0.00114815
C        3.70304560       1.30263083       0.00077212
C        2.92167597       2.42644903       0.00127606
C       -2.87725627      -0.00668717       0.00138678
C       -1.44944149      -0.01099212       0.00117459
C       -1.46607868      -2.44798848       0.00092857
C       -0.75343812      -1.24975868       0.00090340
C       -3.55895422      -1.24745818       0.00140269
H        4.58995458      -1.42818452      -0.00022761
H        3.37533875      -3.39499999      -0.00059487
H        0.96259588      -3.37233369      -0.00009155
H       -1.13727532       3.58250155       0.00128874
H       -3.54451628       3.34808897       0.00162191
H       -4.67994955       1.19428861       0.00171377
H        0.93021801       3.28226766       0.00184035
H        4.79098932       1.42421059       0.00065292
H        3.35467598       3.43069734       0.00156415
H       -0.95794924      -3.41181913       0.00075114
H       -4.65241285      -1.24990704       0.00158571
C       -2.86779158      -2.44112996       0.00119496
H       -3.40978091      -3.38916857       0.00122351
