32
Properties=species:S:1:pos:R:3 Energy=-775.312055145537  
B        3.63394356      -1.29671236       0.00161878
N        2.86904534      -2.48061002      -0.00163287
B        1.45177690      -2.46216500      -0.00278841
N        0.72147637      -1.21720188      -0.00031214
C       -1.48206084       2.43761785      -0.00196185
C       -2.88907081       2.42034324      -0.00319771
C       -3.56464167       1.22958775      -0.00283051
C       -0.74725028       1.26696508      -0.00060264
C        2.83677515       0.01353258       0.00283809
C        1.41782753       0.01256831       0.00140506
C        1.46491162       2.42971717       0.00346230
C        0.72416623       1.24434676       0.00146531
C        3.52546185       1.23371377       0.00480059
C        2.85295188       2.44287543       0.00521905
C       -2.85764072       0.00000086      -0.00147415
C       -1.42920244       0.01519749      -0.00073631
C       -1.43606466      -2.40108064       0.00157888
C       -0.71096777      -1.22173567       0.00017704
C       -3.55054356      -1.23366342      -0.00068940
H        4.84032386      -1.32832862       0.00286103
H        3.32407279      -3.38571544      -0.00325827
H        0.88544948      -3.51316386      -0.00601575
H       -0.98081811       3.40401116      -0.00203547
H       -3.43615387       3.36543669      -0.00428068
H       -4.65639421       1.20434452      -0.00351824
H        0.93878638       3.38328897       0.00370021
H        4.61767888       1.21119356       0.00593927
H        3.39416800       3.39055780       0.00680056
H       -0.92987987      -3.35910437       0.00306939
H       -4.64222360      -1.23085117      -0.00123581
C       -2.84275574      -2.40403761       0.00106130
H       -3.36244270      -3.36453720       0.00205173
