32
Properties=species:S:1:pos:R:3 Energy=-775.236623835964  
C        3.50843622      -1.17792949       0.00184593
N        2.93879555      -2.36025827       0.00163114
B        1.49313819      -2.54132039       0.00146229
C        0.70871604      -1.27659780       0.00156569
C       -1.45920446       2.42201944       0.00198592
C       -2.86578390       2.42839687       0.00186085
C       -3.57026567       1.25360009       0.00157155
C       -0.73263499       1.24043121       0.00181021
N        2.81793798      -0.03706118       0.00192849
C        1.39579509      -0.03810489       0.00179806
C        1.49351829       2.40492404       0.00205036
C        0.74329488       1.21614862       0.00189440
B        3.63008283       1.21259416       0.00214368
C        2.87847701       2.47384411       0.00218477
C       -2.88112102       0.01436692       0.00141677
C       -1.45349621       0.00260109       0.00154440
C       -1.50396211      -2.42306433       0.00116729
C       -0.76184536      -1.25034668       0.00141815
C       -3.58789568      -1.21430528       0.00114990
H        4.59543309      -1.09168677       0.00196503
H        3.57003197      -3.15514273       0.00158517
H        1.11121382      -3.67757143       0.00125305
H       -0.95009217       3.38421018       0.00223570
H       -3.39208920       3.38564323       0.00200082
H       -4.66237004       1.25162648       0.00146770
H        0.93471285       3.34270474       0.00205862
H        4.82284634       1.03961998       0.00224777
H        3.34542790       3.46056053       0.00230166
H       -0.99010792      -3.38322693       0.00107641
H       -4.67998847      -1.19186728       0.00104852
C       -2.90828754      -2.40582770       0.00102794
H       -3.45550417      -3.35121726       0.00082402
