32
Properties=species:S:1:pos:R:3 Energy=-775.270816577506  
C        3.56163149      -1.20472356      -0.00161458
C        2.92221763      -2.39720885      -0.00009455
N        1.55267732      -2.45064964       0.00022022
B        0.73440202      -1.29149772      -0.00093644
C       -1.44252485       2.37933221      -0.00312464
C       -2.84934159       2.40220964      -0.00269079
C       -3.56600697       1.23820908      -0.00192853
C       -0.71841103       1.20131025      -0.00284943
C        2.84888930       0.04694006      -0.00290678
C        1.45005019       0.05341221      -0.00248988
B        1.44481420       2.50195125      -0.00570648
N        0.72768550       1.25140973      -0.00365084
C        3.59722821       1.27116824      -0.00466581
C        2.96126921       2.46868794      -0.00610567
C       -2.88042933       0.00016126      -0.00139020
C       -1.45079489      -0.04016135      -0.00173592
C       -1.56651082      -2.46969775       0.00015123
C       -0.80638434      -1.31624059      -0.00083268
C       -3.61074302      -1.21776703      -0.00041898
H        4.65211020      -1.18333081      -0.00190109
H        3.46073379      -3.34651475       0.00089888
H        1.14286340      -3.37728948       0.00132218
H       -0.92061059       3.32921850      -0.00373280
H       -3.35766400       3.36857104      -0.00299698
H       -4.65791318       1.24342603      -0.00164714
H        0.86695672       3.54961924      -0.00713495
H        4.69019965       1.19427200      -0.00488479
H        3.55713285       3.38536544      -0.00754400
H       -1.07519699      -3.44753070       0.00085602
H       -4.70202902      -1.16385623      -0.00022938
C       -2.97388461      -2.43097386       0.00031526
H       -3.54921399      -3.35906615       0.00107890
