32
Properties=species:S:1:pos:R:3 Energy=-775.241343637294  
C        3.56389398      -1.20097392       0.00179754
N        2.93983340      -2.39082777       0.00229366
B        1.51645705      -2.54056776       0.00227692
C        0.71527683      -1.26177627       0.00162625
C       -1.50136666       2.44266278      -0.00083165
C       -2.87455317       2.50569320      -0.00106004
B       -3.63840206       1.23003468      -0.00028200
C       -0.76875508       1.23038784       0.00010545
C        2.85366138      -0.01455672       0.00119489
C        1.40624710      -0.03889686       0.00107115
C        1.44550143       2.39218669       0.00002663
C        0.70608822       1.23130150       0.00038792
C        3.55963531       1.23220189       0.00072882
C        2.86707968       2.39982179       0.00018662
N       -2.85095962       0.00132838       0.00060869
C       -1.45771852       0.00954369       0.00075867
C       -1.48293230      -2.41757102       0.00222741
C       -0.75416199      -1.25295740       0.00156071
C       -3.53591435      -1.20054769       0.00130752
H        4.65630648      -1.19655661       0.00188704
H        3.53776722      -3.20991063       0.00271026
H        1.10252754      -3.66988339       0.00278241
H       -0.93519128       3.37586096      -0.00143515
H       -3.34438689       3.49193479      -0.00182388
H       -4.83524935       1.09680369      -0.00032381
H        0.94478517       3.35883017      -0.00040510
H        4.65183725       1.21937109       0.00083887
H        3.39154303       3.35731978      -0.00014424
H       -0.96474273      -3.37470095       0.00284163
H       -4.61998085      -1.10275960       0.00114666
C       -2.89893934      -2.39292816       0.00211557
H       -3.47758672      -3.31662857       0.00266115
