32
Properties=species:S:1:pos:R:3 Energy=-771.818314990808  
C        3.58085622      -1.25947027       0.00062993
C        2.80766433      -2.43690989      -0.00059199
C        1.43167478      -2.40570018      -0.00109076
N        0.71483659      -1.24989710      -0.00040522
C       -1.53261090       2.44893006      -0.00035414
C       -2.93731506       2.40825219      -0.00109725
C       -3.58458243       1.20097128      -0.00148933
C       -0.76348803       1.29869045      -0.00005926
C        2.95771586      -0.02315677       0.00121398
B        1.44002960       0.00226690       0.00058096
C        1.48772830       2.45109598       0.00198890
C        0.70340544       1.32412425       0.00089670
C        3.63573361       1.23943337       0.00233708
C        2.92271236       2.40556853       0.00272287
C       -2.85022193      -0.01281356      -0.00124824
C       -1.42209691       0.01923481      -0.00065805
C       -1.43877676      -2.41732242      -0.00071211
C       -0.71955626      -1.23983337      -0.00061137
C       -3.54198211      -1.25103639      -0.00153762
H        4.67358373      -1.34488090       0.00103741
H        3.29181648      -3.41425832      -0.00122677
H        0.88725180      -3.34664490      -0.00217468
H       -1.03641345       3.42014793       0.00001599
H       -3.50552804       3.34082036      -0.00131306
H       -4.67546766       1.14991257      -0.00198207
H        1.03755950       3.44923004       0.00233975
H        4.73032211       1.27205414       0.00286735
H        3.45806948       3.35816575       0.00359546
H       -0.93461190      -3.38029947      -0.00038813
H       -4.63383718      -1.24354456      -0.00196763
C       -2.84694900      -2.42724812      -0.00118911
H       -3.37076844      -3.38498998      -0.00128809
