32
Properties=species:S:1:pos:R:3 Energy=-775.206220145511  
C        3.53187695      -1.27726513      -0.08769250
C        2.90077727      -2.43939437      -0.37028938
B        1.38594110      -2.44129184      -0.41235069
N        0.70484338      -1.21861801      -0.09698138
C       -1.48990877       2.45699409      -0.25005627
C       -2.92230701       2.38829401      -0.30059331
C       -3.63100082       1.22152154      -0.18228107
C       -0.70785143       1.33575482      -0.12400566
C        2.81306002      -0.03914531       0.07400641
C        1.39464972       0.00695600       0.02208625
C        1.52320920       2.42344155       0.19008833
C        0.74563643       1.27681478       0.03403632
C        3.54324915       1.15199192       0.23460984
C        2.90985802       2.37485601       0.30585231
C       -2.95088825      -0.02795733      -0.02538001
B       -1.44014163       0.02478513      -0.05589628
C       -1.36542444      -2.35276015       0.32347776
N       -0.70035384      -1.20452635       0.05596567
C       -3.54632169      -1.26651942       0.17384283
H        4.62295697      -1.21780638      -0.01160254
H        3.49178944      -3.34335901      -0.53626462
H        0.74427990      -3.41544126      -0.68148285
H       -1.04663191       3.45692916      -0.30148485
H       -3.46764500       3.32858575      -0.41401094
H       -4.72554388       1.25186621      -0.19294283
H        1.01925997       3.39031640       0.21862118
H        4.63201091       1.08488952       0.28858744
H        3.48476469       3.29390772       0.43291684
H       -0.77371863      -3.24679060       0.49754720
H       -4.63623977      -1.37577650       0.20452633
C       -2.74549586      -2.40304414       0.37388317
H       -3.20194266      -3.37018069       0.58739248
