32
Properties=species:S:1:pos:R:3 Energy=-775.242038038275  
N        3.55025680      -1.17261328       0.00270005
B        2.95991324      -2.48362820       0.00408035
C        1.45683040      -2.60571135       0.00432941
B        0.72932055      -1.34164443       0.00313822
C       -1.46598305       2.39165145      -0.00078296
C       -2.87057366       2.41882775      -0.00078123
C       -3.58183043       1.24959724       0.00055107
C       -0.72268171       1.21975475       0.00050071
C        2.86551841       0.01815401       0.00154608
C        1.44694123       0.01241868       0.00166996
C        1.46780362       2.44753441      -0.00083194
C        0.75858175       1.24316841       0.00043709
C        3.55783895       1.24058011       0.00024286
C        2.86163480       2.43630027      -0.00091578
C       -2.89055068       0.01507359       0.00192050
C       -1.46336776      -0.00878386       0.00188368
C       -1.52372596      -2.36223979       0.00461625
N       -0.82269305      -1.23381012       0.00322778
C       -3.60004399      -1.20724267       0.00336648
H        4.55831180      -1.07819937       0.00252206
H        3.74955582      -3.40561277       0.00495632
H        1.01959120      -3.61046601       0.00534401
H       -0.94346089       3.34604508      -0.00186377
H       -3.38607755       3.38101978      -0.00185498
H       -4.67320406       1.24453327       0.00059313
H        0.96045878       3.41089592      -0.00177960
H        4.65129567       1.23922426       0.00015148
H        3.40833624       3.38183781      -0.00192519
H       -0.92896507      -3.27399143       0.00566904
H       -4.69201475      -1.18324921       0.00338661
C       -2.91862431      -2.39633759       0.00473966
H       -3.43030044      -3.35860080       0.00591705
