32
Properties=species:S:1:pos:R:3 Energy=-775.233248545362  
B        3.69689524      -1.43409955      -0.00298421
N        2.81095653      -2.52912445      -0.00182573
C        1.44544679      -2.37975999      -0.00228539
C        0.75939133      -1.20621136      -0.00349117
C       -1.46857485       2.41167278       0.00039284
C       -2.87522643       2.40604524       0.00092632
C       -3.56452581       1.22263170      -0.00093070
C       -0.73512089       1.23756596      -0.00186251
B        2.92061468       0.04384264      -0.00403284
N        1.44705449       0.03840924      -0.00363231
C        1.43653694       2.42936903      -0.00425475
C        0.74539636       1.23858085      -0.00330460
C        3.60773223       1.38847722      -0.00489074
C        2.84548578       2.52097515      -0.00514187
C       -2.86421344      -0.00861799      -0.00306624
C       -1.43657666      -0.00260131      -0.00319884
C       -1.44933691      -2.41343086      -0.00714470
C       -0.72017316      -1.23430226      -0.00475013
C       -3.55696746      -1.24267394      -0.00509776
H        4.88126740      -1.67345139      -0.00273188
H        3.13091853      -3.49153700      -0.00077077
H        0.88497402      -3.31015841      -0.00162146
H       -0.96983097       3.37796567       0.00183232
H       -3.41072653       3.35754638       0.00273247
H       -4.65652034       1.20837347      -0.00074749
H        0.87075061       3.35633611      -0.00435691
H        4.69737985       1.48003074      -0.00539153
H        3.29006449       3.52189814      -0.00589863
H       -0.95007608      -3.38019762      -0.00907199
H       -4.64887241      -1.23791441      -0.00504587
C       -2.85505697      -2.41923224      -0.00728238
H       -3.38100112      -3.37615765      -0.00913694
