32
Properties=species:S:1:pos:R:3 Energy=-775.223855315724  
C        3.57644329      -1.26668335       0.00042113
C        2.79803077      -2.43133012      -0.00164366
C        1.41517968      -2.39246922      -0.00161308
N        0.70191077      -1.24131435       0.00059613
C       -1.51298794       2.45236158      -0.00037513
C       -2.92519304       2.39589582      -0.00128276
C       -3.52593220       1.18445719      -0.00050779
C       -0.75360867       1.30960321       0.00096210
C        2.95421517      -0.02339939       0.00205010
B        1.43980020       0.00502709       0.00184219
C        1.49475976       2.45668261       0.00403364
C        0.70921146       1.32573380       0.00249046
C        3.63194144       1.23349892       0.00373758
C        2.92305603       2.40701480       0.00477416
N       -2.81435915      -0.00089839       0.00079452
C       -1.41856095       0.01550703       0.00100363
C       -1.46150608      -2.43014836       0.00364622
C       -0.73721861      -1.22084597       0.00162667
B       -3.60218324      -1.23180822       0.00202319
H        4.66866523      -1.35604125       0.00048213
H        3.27191478      -3.41376372      -0.00347305
H        0.87469895      -3.33503173      -0.00370504
H       -1.01954285       3.42437167      -0.00064093
H       -3.52967596       3.30276167      -0.00239005
H       -4.60667776       1.05867025      -0.00080490
H        1.04612804       3.45565485       0.00471888
H        4.72675187       1.26412055       0.00411224
H        3.46371683       3.35650096       0.00607419
H       -0.90353586      -3.36585462       0.00538800
H       -4.79803282      -1.10182271       0.00163566
C       -2.83583453      -2.50048169       0.00391064
H       -3.29683095      -3.49031432       0.00564514
