32
Properties=species:S:1:pos:R:3 Energy=-775.239467380273  
C        3.59124545      -1.21504913      -0.00306596
C        3.01551351      -2.43664578      -0.00320329
B        1.50054428      -2.50501231      -0.00244482
N        0.74786562      -1.28016867      -0.00157226
C       -1.43411782       2.42529613      -0.00163381
C       -2.81120089       2.44940856      -0.00100399
C       -3.57927981       1.27054178       0.00007576
N       -0.72378840       1.26695408      -0.00126694
C        2.81456752      -0.00026935      -0.00242858
C        1.39147103      -0.03455553      -0.00182223
C        1.43706826       2.40414178      -0.00143914
C        0.70465603       1.22261683      -0.00152261
C        3.50679800       1.22191537      -0.00244777
C        2.82973909       2.41832206      -0.00188931
C       -2.95572841       0.03264077       0.00037652
B       -1.43929268       0.02009753      -0.00045535
C       -1.45512314      -2.42452895       0.00071728
C       -0.68323702      -1.29166804      -0.00041761
C       -3.62436217      -1.23166119       0.00143266
H        4.67939170      -1.08894552      -0.00349736
H        3.64996068      -3.32629485      -0.00378267
H        0.91326084      -3.54776477      -0.00254509
H       -0.89025330       3.36606026      -0.00252136
H       -3.29983956       3.42457806      -0.00136949
H       -4.67196378       1.35259796       0.00063822
H        0.92332553       3.36157985      -0.00096957
H        4.59833532       1.19782799      -0.00288040
H        3.36394809       3.36949234      -0.00180994
H       -1.00180861      -3.41513651       0.00094303
H       -4.71791943      -1.27822460       0.00209521
C       -2.89097965      -2.38327940       0.00162553
H       -3.41018121      -3.34487883       0.00248306
