32
Properties=species:S:1:pos:R:3 Energy=-775.287009446497  
C        3.63087639      -1.25012377       0.00102202
B        2.85688497      -2.53308226       0.00071164
N        1.42555146      -2.39370475      -0.00007538
C        0.75904825      -1.21087061      -0.00058198
C       -1.57426272       2.44947107      -0.00146155
C       -2.98315367       2.41118401      -0.00223431
C       -3.62422197       1.19955714      -0.00283452
C       -0.80620185       1.30030136      -0.00124790
C        2.93320591      -0.05369953       0.00062628
C        1.48902233      -0.02894372      -0.00019033
N        1.55302004       2.47387910      -0.00000466
B        0.74859013       1.30209522      -0.00049095
C        3.60656102       1.23590740       0.00100022
C        2.93220492       2.40507267       0.00069572
C       -2.88847489      -0.01432056      -0.00265945
C       -1.46436744       0.02936429      -0.00181069
C       -1.44063679      -2.39385375      -0.00234982
C       -0.72751780      -1.20886346      -0.00157988
C       -3.56292354      -1.26215568      -0.00334440
H        4.72369634      -1.20167736       0.00160946
H        3.29856584      -3.65593127       0.00108016
H        0.85951656      -3.23172791      -0.00020270
H       -1.08660599       3.42900199      -0.00103396
H       -3.55617850       3.34066086      -0.00237216
H       -4.71568725       1.14777782      -0.00346739
H        1.15777029       3.40561700      -0.00013134
H        4.69725280       1.25558684       0.00156632
H        3.46329193       3.35996717       0.00100348
H       -0.92883405      -3.35713786      -0.00234917
H       -4.65523857      -1.27345785      -0.00399545
C       -2.84935914      -2.42985659      -0.00322377
H       -3.36016940      -3.39451028      -0.00380177
