32
Properties=species:S:1:pos:R:3 Energy=-775.255850385272  
N        3.56111609      -1.17663555       0.00088858
B        2.96721688      -2.45807093      -0.00034316
C        1.45161670      -2.46574590      -0.00020577
C        0.74141861      -1.29296248       0.00115236
C       -1.48141247       2.42850321       0.00254337
C       -2.85473135       2.49544556       0.00246215
B       -3.62077412       1.22312136       0.00244316
C       -0.74904684       1.21630066       0.00247770
C        2.85581884       0.00560518       0.00190335
C        1.43744823      -0.01741690       0.00196888
C        1.45293258       2.40701702       0.00366552
C        0.72719206       1.21597839       0.00273344
C        3.55096799       1.22496449       0.00283946
C        2.84770818       2.40983765       0.00374961
N       -2.83249573      -0.00804842       0.00236775
C       -1.43688687      -0.00245626       0.00222947
C       -1.47687433      -2.42726170       0.00224216
C       -0.74320447      -1.26992174       0.00187342
C       -3.52029943      -1.20307292       0.00253583
H        4.56866823      -1.06667886       0.00095976
H        3.67984969      -3.42999982      -0.00131112
H        0.90945729      -3.41158516      -0.00111182
H       -0.91559597       3.36100625       0.00261984
H       -3.32226696       3.48256090       0.00247779
H       -4.81676962       1.08764005       0.00250956
H        0.94254716       3.36695413       0.00437638
H        4.64345242       1.21788763       0.00282389
H        3.38325653       3.36153477       0.00451829
H       -0.97604670      -3.39344073       0.00225821
H       -4.60424513      -1.10126773       0.00267205
C       -2.89235642      -2.40040579       0.00258376
H       -3.47338889      -3.32214423       0.00282349
