32
Properties=species:S:1:pos:R:3 Energy=-775.250679814906  
C        3.60323398      -1.21209045       0.00151635
B        2.88877035      -2.52558917       0.00108500
N        1.43687021      -2.49608115       0.00026033
B        0.73349330      -1.27433303      -0.00011600
C       -1.48017226       2.39703768      -0.00006685
C       -2.88079900       2.40749042      -0.00078008
C       -3.57881625       1.22668198      -0.00180324
C       -0.72183708       1.23016087      -0.00034235
C        2.89932950       0.00189970       0.00122289
C        1.45749578       0.02915943       0.00047832
C        1.45990162       2.45785561       0.00054863
C        0.75653787       1.26387216       0.00023941
C        3.57086768       1.26872248       0.00161670
C        2.87305952       2.44578887       0.00125075
C       -2.87571925       0.00192274      -0.00203089
C       -1.44794215      -0.00359375      -0.00120991
C       -1.48964826      -2.36712865      -0.00235504
N       -0.78929235      -1.22883036      -0.00128215
C       -3.57601223      -1.22837961      -0.00308545
H        4.69549111      -1.14015705       0.00209732
H        3.42222969      -3.61429754       0.00136913
H        0.98304927      -3.40061835       0.00003443
H       -0.96471157       3.35558380       0.00074962
H       -3.40922320       3.36259331      -0.00052433
H       -4.66995451       1.20888035      -0.00241993
H        0.95560077       3.42327246       0.00022052
H        4.66368669       1.27725343       0.00219394
H        3.40925394       3.39794075       0.00150764
H       -0.91358421      -3.28959293      -0.00248122
H       -4.66774441      -1.21507086      -0.00374879
C       -2.88199214      -2.41067605      -0.00329581
H       -3.38454823      -3.37778157      -0.00415681
