32
Properties=species:S:1:pos:R:3 Energy=-775.230429810181  
B        3.63401049      -1.29922177       0.00368877
N        2.81828351      -2.46613802       0.00453588
C        1.45027803      -2.43474483       0.00404872
C        0.75626124      -1.25517820       0.00272040
C       -1.50805679       2.35733181      -0.00030286
C       -2.90274509       2.39317807      -0.00067195
C       -3.59020424       1.20894960      -0.00020244
N       -0.80471190       1.22557632       0.00049234
C        2.88691728       0.02961514       0.00225217
C        1.46441929       0.00360466       0.00188656
C        1.49336907       2.57665069      -0.00031148
B        0.72423102       1.30333728       0.00065021
C        3.56208721       1.26779680       0.00134514
C        2.89015960       2.48674575       0.00009045
C       -2.88249931      -0.01785693       0.00069200
C       -1.45404895      -0.00191615       0.00110100
C       -1.47475418      -2.40572610       0.00245135
C       -0.71966528      -1.23575473       0.00210302
C       -3.57978800      -1.24585209       0.00117199
H        4.83257307      -1.44324482       0.00419636
H        3.23367089      -3.38943350       0.00555993
H        0.96130181      -3.40856140       0.00481117
H       -0.92092270       3.27319788      -0.00068247
H       -3.41037880       3.35781284      -0.00134270
H       -4.68187653       1.18826233      -0.00049958
H        1.08287977       3.59301272      -0.00134872
H        4.65539943       1.26425611       0.00163200
H        3.49010043       3.40375975      -0.00060369
H       -0.96259724      -3.36638380       0.00309484
H       -4.67099147      -1.23422596       0.00083622
C       -2.87490850      -2.42206582       0.00201289
H       -3.39802167      -3.38032520       0.00235055
