32
Properties=species:S:1:pos:R:3 Energy=-775.232983080702  
B        3.63847159      -1.20813445      -0.00075074
C        2.90159860      -2.49694473      -0.00178750
C        1.52853761      -2.44682723      -0.00194565
C        0.77110636      -1.24963974      -0.00115625
C       -1.49443143       2.46966976       0.00227312
C       -2.91586076       2.38948950       0.00211952
C       -3.57764339       1.19723356       0.00080474
C       -0.72564293       1.32896599       0.00108599
N        2.83152164       0.01336106       0.00009163
C        1.43239648      -0.00194835      -0.00003982
C        1.49159933       2.44044505       0.00188980
C        0.74671842       1.28914589       0.00101186
C        3.52345067       1.20663970       0.00102722
C        2.90545536       2.40950161       0.00189132
N       -2.90090168       0.00210347      -0.00040487
B       -1.45102758       0.00586782      -0.00027064
C       -1.46435771      -2.45021071      -0.00281793
C       -0.69915185      -1.30691812      -0.00149033
C       -3.57238572      -1.20400459      -0.00174892
H        4.83259730      -1.05255788      -0.00052449
H        3.38692503      -3.47557227      -0.00243623
H        0.96370572      -3.38278069      -0.00271431
H       -1.05553194       3.47181060       0.00337528
H       -3.50701702       3.30629111       0.00307473
H       -4.66853059       1.14009837       0.00065858
H        0.98791899       3.40735589       0.00261907
H        4.60662249       1.09888343       0.00101004
H        3.49428766       3.32639893       0.00259045
H       -1.02297416      -3.45020883      -0.00383746
H       -4.66322594      -1.15679061      -0.00180724
C       -2.89032323      -2.38093962      -0.00292812
H       -3.46820500      -3.30665828      -0.00399420
