32
Properties=species:S:1:pos:R:3 Energy=-775.235084683567  
N        3.58315683      -1.29268916       0.00041992
C        2.93608466      -2.44694496       0.00148660
B        1.42388108      -2.48117235       0.00214606
N        0.69599459      -1.24023369       0.00154054
C       -1.48603347       2.43387583      -0.00046939
C       -2.89279215       2.42434538       0.00002254
C       -3.57636388       1.23727681       0.00122519
C       -0.75258186       1.26155695       0.00025966
B        2.91155840      -0.01290126      -0.00015845
C        1.38866361      -0.03199575       0.00044538
C        1.47423087       2.39264142      -0.00106155
C        0.71983376       1.22305061      -0.00013700
C        3.64902692       1.29875409      -0.00124584
C        2.88534561       2.44112152      -0.00160625
C       -2.87330660       0.00625517       0.00193887
C       -1.44552791       0.01488056       0.00143290
C       -1.46791017      -2.40720577       0.00320607
C       -0.74434792      -1.23018190       0.00208560
C       -3.57030246      -1.22628203       0.00311522
H        4.60170929      -1.31761102       0.00000755
H        3.54811565      -3.35391155       0.00185396
H        0.87538455      -3.54207061       0.00318066
H       -0.97740625       3.39655731      -0.00146707
H       -3.43441111       3.37260398      -0.00057372
H       -4.66822399       1.21782990       0.00162962
H        0.95158442       3.34887624      -0.00138224
H        4.74013885       1.39843802      -0.00171982
H        3.35188702       3.43154487      -0.00233194
H       -0.95436623      -3.36217739       0.00369667
H       -4.66223015      -1.21637583       0.00350328
C       -2.87467007      -2.40461503       0.00373433
H       -3.40272535      -3.36023406       0.00464231
