32
Properties=species:S:1:pos:R:3 Energy=-775.247225745555  
B        3.65395494      -1.31653106      -0.00109469
N        2.72830327      -2.45936661       0.00088333
C        1.39913712      -2.39417904       0.00104592
N        0.72445432      -1.25998104      -0.00089612
C       -1.52535486       2.43810484       0.00117342
C       -2.93024402       2.39721485       0.00200512
C       -3.58129017       1.19275081       0.00120999
C       -0.75039207       1.29097661      -0.00017983
C        2.98532902       0.01374074      -0.00228491
B        1.48399476       0.02960204      -0.00179848
C        1.48219454       2.47178533      -0.00226620
C        0.71511050       1.31855021      -0.00153349
C        3.62350567       1.28165457      -0.00316596
C        2.89931018       2.45656010      -0.00321650
C       -2.84458774      -0.01957297      -0.00026642
C       -1.41448949       0.01258352      -0.00058183
C       -1.43815529      -2.42577157      -0.00390769
C       -0.71985774      -1.24728998      -0.00174683
C       -3.53610820      -1.25655990      -0.00168531
H        4.82673033      -1.60370293      -0.00110606
H        3.09438693      -3.40488116       0.00256431
H        0.86309228      -3.34211598       0.00309504
H       -1.03211464       3.41029510       0.00153157
H       -3.49656338       3.33110119       0.00312132
H       -4.67197806       1.14147750       0.00158152
H        1.00555148       3.45765953      -0.00208866
H        4.71791221       1.34119590      -0.00367007
H        3.42579441       3.41414985      -0.00383347
H       -0.94324966      -3.39440039      -0.00601012
H       -4.62799337      -1.24725152      -0.00142976
C       -2.84530881      -2.43548474      -0.00375427
H       -3.37075134      -3.39216546      -0.00534295
