32
Properties=species:S:1:pos:R:3 Energy=-775.278031526739  
B        3.63261858      -1.32564994      -0.00152186
N        2.80787951      -2.48770337      -0.00089971
C        1.45100182      -2.42368976      -0.00029549
C        0.74913403      -1.24737017      -0.00022632
C       -1.47112874       2.41954041       0.00071397
C       -2.87784747       2.41491510       0.00139094
C       -3.56445996       1.23043605       0.00172294
C       -0.73163452       1.24911910       0.00042340
C        2.89620327      -0.00019744      -0.00132442
C        1.48685091      -0.00012060      -0.00063544
C        1.45126494       2.42345270      -0.00042826
C        0.74926972       1.24720856      -0.00024350
B        3.63276308       1.32517564      -0.00161466
N        2.80814952       2.48731780      -0.00107980
C       -2.86111598       0.00011687       0.00136013
C       -1.43253273       0.00003963       0.00072510
C       -1.47139633      -2.41945727       0.00045059
C       -0.73177187      -1.24911831       0.00033293
C       -3.56459678      -1.23012323       0.00157085
H        4.82874331      -1.47681506      -0.00209793
H        3.20442915      -3.41989747      -0.00086310
H        0.93755168      -3.38462953       0.00017336
H       -0.97301533       3.38832535       0.00039606
H       -3.41503244       3.36574232       0.00163126
H       -4.65643419       1.21321836       0.00223353
H        0.93791871       3.38444850      -0.00002754
H        4.82890437       1.47620937      -0.00221198
H        3.20480068       3.41946940      -0.00113555
H       -0.97339194      -3.38829764       0.00001553
H       -4.65657042      -1.21278328       0.00207148
C       -2.87811483      -2.41467784       0.00109422
H       -3.41540240      -3.36544837       0.00119467
