32
Properties=species:S:1:pos:R:3 Energy=-775.228143544937  
N        3.60873241      -1.27236079      -0.00161934
N        2.91915649      -2.45413236      -0.00165133
B        1.52397141      -2.54664360      -0.00129914
C        0.70090532      -1.23484650      -0.00083829
C       -1.50499141       2.43859205       0.00067297
C       -2.91006864       2.43506873       0.00106778
C       -3.59868409       1.24799929       0.00093252
C       -0.76817366       1.26393296       0.00013815
B        2.94504562      -0.02868440      -0.00119074
C        1.39498547      -0.03897162      -0.00076030
C        1.45969504       2.39486044      -0.00033054
C        0.70984595       1.24914181      -0.00031309
C        3.67879035       1.31689433      -0.00114571
C        2.90256429       2.42988853      -0.00073155
C       -2.89749649       0.01813721       0.00041168
C       -1.47231264       0.01983824       0.00002089
C       -1.50020957      -2.40577402      -0.00059443
C       -0.76988702      -1.22877346      -0.00047462
C       -3.59476019      -1.21877813       0.00027108
H        4.61579720      -1.37446152      -0.00192797
H        3.50917164      -3.27696014      -0.00195869
H        1.09037065      -3.66855391      -0.00138096
H       -0.99460147       3.40123974       0.00080092
H       -3.44828518       3.38521922       0.00148718
H       -4.69096644       1.23400658       0.00122945
H        0.96012867       3.36438949      -0.00002579
H        4.76719031       1.43864936      -0.00142269
H        3.35855346       3.42612612      -0.00068035
H       -0.97338319      -3.35878504      -0.00098022
H       -4.68721104      -1.20488388       0.00056865
C       -2.90848029      -2.40468167      -0.00022890
H       -3.44720925      -3.35450083      -0.00034176
