32
Properties=species:S:1:pos:R:3 Energy=-775.229568431654  
C        3.66471451      -1.21608810       0.00216662
B        2.89602662      -2.49554793       0.00270663
N        1.44268478      -2.41032958       0.00237522
C        0.70478724      -1.28503062       0.00158253
C       -1.44771273       2.41907958      -0.00114910
C       -2.85429451       2.42036434      -0.00147226
C       -3.54233178       1.23830184      -0.00083718
C       -0.71983306       1.24531351      -0.00016083
C        2.97791839       0.01209075       0.00138457
B        1.45393876       0.01232738       0.00102577
C        1.42126986       2.41318140      -0.00005505
N        0.71463400       1.26172594       0.00024408
C        3.58658884       1.28474288       0.00091663
C        2.81125074       2.44006067       0.00024154
C       -2.84207661       0.00659846       0.00010019
C       -1.41659490      -0.01196076       0.00043984
C       -1.50631871      -2.44729785       0.00182239
C       -0.74705620      -1.28738084       0.00131316
C       -3.56719101      -1.21516365       0.00068038
H        4.76117729      -1.19147255       0.00239473
H        3.35392250      -3.61341519       0.00342996
H        0.93288404      -3.28946875       0.00281256
H       -0.94852040       3.38473550      -0.00173287
H       -3.38453596       3.37432460      -0.00224540
H       -4.63405559       1.22405864      -0.00106956
H        0.88011554       3.35575809      -0.00051785
H        4.67823123       1.37902161       0.00111765
H        3.28804781       3.42172689      -0.00005873
H       -1.01440439      -3.42197349       0.00246179
H       -4.65828799      -1.17339470       0.00042560
C       -2.91127003      -2.41779126       0.00152806
H       -3.47152213      -3.35475081       0.00196888
