32
Properties=species:S:1:pos:R:3 Energy=-775.264308205573  
C        3.62158601      -1.18541716      -0.00253902
C        2.99896870      -2.38551751      -0.00211870
N        1.63097850      -2.48926770      -0.00114762
B        0.76357436      -1.35799796      -0.00060827
C       -1.41663194       2.37417136      -0.00129975
C       -2.79214762       2.43516589      -0.00060797
C       -3.58271941       1.27193051       0.00087671
N       -0.70601121       1.21629041      -0.00052231
C        2.87785614       0.05427883      -0.00203318
C        1.46066859       0.01999093      -0.00130603
C        1.43848360       2.44722890      -0.00074478
C        0.73966156       1.24544826      -0.00089777
C        3.55942386       1.28733564      -0.00218909
C        2.83904363       2.46031461      -0.00144314
C       -2.97522999       0.02834474       0.00146178
B       -1.45423513      -0.04108947       0.00062247
C       -1.60310600      -2.49480475       0.00185931
C       -0.77458647      -1.39942391       0.00077459
C       -3.69644672      -1.21155121       0.00267925
H        4.71159336      -1.14879572      -0.00324700
H        3.56508486      -3.31980999      -0.00250104
H        1.25605538      -3.43043989      -0.00074213
H       -0.86230710       3.30894671      -0.00269931
H       -3.25639721       3.42199559      -0.00134404
H       -4.67450186       1.37171334       0.00143003
H        0.93385032       3.40984662       0.00003695
H        4.65140398       1.30338838      -0.00276943
H        3.35633487       3.42232436      -0.00136009
H       -1.18815283      -3.51286752       0.00195460
H       -4.79200110      -1.19787356       0.00339729
C       -3.03682024      -2.40849435       0.00288429
H       -3.61080074      -3.33850282       0.00378832
