32
Properties=species:S:1:pos:R:3 Energy=-775.226053088403  
B        3.62279268      -1.20824983       0.00018621
C        2.87077667      -2.49098404       0.00133953
C        1.49801421      -2.43884737       0.00118218
C        0.75767647      -1.23146602      -0.00004752
C       -1.49536050       2.43820558      -0.00404839
C       -2.86812293       2.49035772      -0.00428705
B       -3.62014357       1.20762536      -0.00297498
C       -0.75503933       1.23081902      -0.00262338
N        2.82537872       0.01413836      -0.00102676
C        1.43424441      -0.00375325      -0.00115129
C        1.44054221       2.41968967      -0.00326795
C        0.71790038       1.25203189      -0.00238057
C        3.50564564       1.22070484      -0.00202772
C        2.85784455       2.40492132      -0.00310842
N       -2.82274338      -0.01477050      -0.00159239
C       -1.43160903       0.00310929      -0.00145420
C       -1.43792349      -2.42033062       0.00094402
C       -0.71526703      -1.25267840      -0.00014211
C       -3.50302047      -1.22133057      -0.00042883
H        4.81780965      -1.06496606       0.00015668
H        3.34878622      -3.47307387       0.00233514
H        0.94062555      -3.37710256       0.00207112
H       -0.93795221       3.37645154      -0.00504439
H       -3.34612590       3.47245120      -0.00545971
H       -4.81516270       1.06434774      -0.00293903
H        0.93890955       3.38466901      -0.00411838
H        4.59000214       1.12999234      -0.00185599
H        3.42594655       3.33499226      -0.00386198
H       -0.93630779      -3.38531689       0.00192854
H       -4.58737606      -1.13060766      -0.00061280
C       -2.85522525      -2.40554982       0.00081840
H       -3.42333406      -3.33561573       0.00171029
