32
Properties=species:S:1:pos:R:3 Energy=-775.249311349090  
C        3.65789652      -1.18165964      -0.00026087
B        2.94259474      -2.49211445       0.00063449
N        1.51012219      -2.38280964       0.00057076
C        0.80363474      -1.23079491      -0.00021394
C       -1.46306547       2.39946221      -0.00314054
C       -2.87719731       2.42221018      -0.00331511
C       -3.55674927       1.24885873      -0.00244183
C       -0.75762572       1.22466649      -0.00213480
C        2.93071162       0.00643552      -0.00109382
C        1.48280509      -0.01409071      -0.00109642
C        1.42979369       2.40449457      -0.00278262
C        0.72973169       1.21956739      -0.00200086
C        3.57773081       1.28722048      -0.00195667
C        2.84964822       2.43560448      -0.00275115
C       -2.85645515       0.00607868      -0.00133613
N       -1.45902336       0.00730535      -0.00122030
C       -1.56132104      -2.52844655       0.00110373
B       -0.74900988      -1.27506143      -0.00007752
C       -3.57038037      -1.18896109      -0.00034727
H        4.74777714      -1.08812044      -0.00030746
H        3.42532269      -3.59677593       0.00139573
H        0.94413034      -3.22492753       0.00114596
H       -0.93126724       3.34533264      -0.00383665
H       -3.40331622       3.37819951      -0.00414428
H       -4.64623546       1.21285652      -0.00253566
H        0.91559984       3.36281963      -0.00347811
H        4.66945282       1.31516511      -0.00195373
H        3.35126569       3.40577787      -0.00339187
H       -1.12739994      -3.53285429       0.00216519
H       -4.65813479      -1.11821247      -0.00053596
C       -2.93843004      -2.43374588       0.00089195
H       -3.56599886      -3.33075327       0.00170526
