32
Properties=species:S:1:pos:R:3 Energy=-775.247670023803  
N        3.57214575      -1.34829962      -0.00032780
C        2.81461302      -2.46520627       0.00033846
C        1.44513229      -2.42312849       0.00084091
C        0.72320051      -1.19249980       0.00069618
C       -1.61729561       2.54116897       0.00125020
C       -2.98608863       2.42716545       0.00188424
C       -3.60113100       1.16616675       0.00217716
B       -0.76531112       1.30211564       0.00089891
B        2.98043283      -0.03937067      -0.00046879
C        1.45050885      -0.00196042       0.00014043
C        1.55193531       2.41478140      -0.00050992
C        0.78474003       1.27423348       0.00012080
C        3.74076860       1.27935682      -0.00115968
C        2.98829365       2.41896780      -0.00115212
C       -2.86895072      -0.01028554       0.00189010
N       -1.46866825       0.00768731       0.00132827
C       -1.45060708      -2.39255884       0.00130235
C       -0.76318342      -1.21059528       0.00112518
C       -3.55456462      -1.26681905       0.00212581
H        4.57784809      -1.47944509      -0.00068888
H        3.33618745      -3.42523745       0.00047780
H        0.93672963      -3.38299501       0.00141381
H       -1.18411515       3.54482794       0.00102587
H       -3.62936903       3.31352549       0.00215794
H       -4.68782493       1.07834984       0.00262285
H        1.05542265       3.38831423      -0.00052289
H        4.83184648       1.37815156      -0.00165185
H        3.47512624       3.40095481      -0.00163578
H       -0.90742443      -3.33182620       0.00104877
H       -4.64465802      -1.24076384       0.00254323
C       -2.86901068      -2.43347305       0.00180246
H       -3.38569341      -3.39452757       0.00193689
