32
Properties=species:S:1:pos:R:3 Energy=-775.207509301161  
C        3.58916188      -1.21864903      -0.00170436
C        2.97045907      -2.41699075      -0.00340715
B        1.45448338      -2.46631557      -0.00338599
N        0.72198747      -1.22764528      -0.00113115
C       -1.46562765       2.41778836      -0.00144781
C       -2.85955965       2.42810956      -0.00171775
C       -3.52795295       1.22689314      -0.00102042
C       -0.73457789       1.23547499      -0.00071984
C        2.83203344       0.00134613      -0.00040253
C        1.41008279      -0.00536671      -0.00036322
C        1.46616335       2.41692126       0.00087452
C        0.73441318       1.23504119       0.00003088
C        3.52778531       1.22480439       0.00053277
C        2.86010167       2.42641608       0.00124419
C       -2.83292609       0.00302238      -0.00023320
C       -1.41097981      -0.00453257      -0.00038903
B       -1.45683501      -2.46545440       0.00223998
N       -0.72360487      -1.22721912       0.00018101
C       -3.59077687      -1.21652187       0.00099656
H        4.67998499      -1.12143200      -0.00157626
H        3.56868395      -3.33145558      -0.00472386
H        0.89984131      -3.51301672      -0.00523278
H       -0.94291827       3.37211984      -0.00179759
H       -3.40261073       3.37441019      -0.00231087
H       -4.61949708       1.19505513      -0.00096422
H        0.94402143       3.37156438       0.00124718
H        4.61931072       1.19231504       0.00056798
H        3.40371580       3.37239339       0.00192797
H       -0.90281915      -3.51248557       0.00381806
H       -4.68154240      -1.11866149       0.00103133
C       -2.97278424      -2.41522902       0.00241749
H       -3.57155447      -3.32933706       0.00365354
