32
Properties=species:S:1:pos:R:3 Energy=-775.168475560784  
C        3.61291437      -1.18331473      -0.00190298
C        2.96978188      -2.39247081      -0.00151416
C        1.57650285      -2.39850189      -0.00135972
N        0.83773786      -1.28897075      -0.00141390
C       -1.43067202       2.44714788       0.00238127
C       -2.79890662       2.45866584       0.00299355
C       -3.58425382       1.27226470       0.00172092
N       -0.71962308       1.26808300       0.00033185
C        2.86614968       0.02164565      -0.00194887
C        1.43953644      -0.03076787      -0.00140541
C        1.43817433       2.39116970      -0.00228888
C        0.69691275       1.21873815      -0.00105678
C        3.55363678       1.25844235      -0.00264896
C        2.84097793       2.42346352      -0.00301533
C       -2.97368388       0.03573200       0.00009714
B       -1.44768278       0.02375080      -0.00057892
C       -1.51659467      -2.59244799      -0.00233529
B       -0.67641889      -1.38824436      -0.00170892
C       -3.64015072      -1.23984108      -0.00085629
H        4.70285614      -1.12265873      -0.00221409
H        3.51155201      -3.33839640      -0.00144407
H        1.00796165      -3.32809412      -0.00127192
H       -0.89169189       3.39096334       0.00392542
H       -3.29165667       3.43258621       0.00473742
H       -4.67629417       1.37463356       0.00229125
H        0.92166739       3.34646003      -0.00278317
H        4.64464842       1.25501735      -0.00306146
H        3.34930980       3.38932870      -0.00385403
H       -1.18177756      -3.63917106      -0.00307292
H       -4.73522027      -1.27049204      -0.00059050
C       -2.94703254      -2.42891080      -0.00197874
H       -3.55464244      -3.34197062      -0.00257562
