32
Properties=species:S:1:pos:R:3 Energy=-775.251266091080  
C        3.56614441      -1.21177288      -0.00077193
N        2.93923935      -2.40050624      -0.00032923
B        1.51694015      -2.55056506      -0.00012016
C        0.72134550      -1.26793277      -0.00051233
B       -1.45002194       2.48516778      -0.00287965
C       -2.96473827       2.46037375      -0.00250114
C       -3.58673295       1.26018325      -0.00129849
N       -0.72317870       1.23945373      -0.00169202
C        2.85865471      -0.02369405      -0.00110507
C        1.41006284      -0.05014711      -0.00105594
C        1.44752798       2.38012905      -0.00154802
C        0.71416843       1.22106990      -0.00144931
C        3.56586015       1.22077805      -0.00142668
C        2.87046627       2.38414138      -0.00156337
C       -2.84506569       0.02764816      -0.00057520
C       -1.42584564       0.02261835      -0.00080494
C       -1.49296622      -2.39876127       0.00052535
C       -0.74523499      -1.22171582      -0.00024604
C       -3.55115050      -1.18999238       0.00029006
H        4.65836744      -1.20883213      -0.00082287
H        3.53654339      -3.22017371      -0.00007342
H        1.09907543      -3.67766849       0.00036498
H       -0.86072168       3.52581896      -0.00418425
H       -3.56483354       3.37351409      -0.00316381
H       -4.67880311       1.17235999      -0.00094141
H        0.94245682       3.33949381      -0.00164842
H        4.65783800       1.20845246      -0.00146152
H        3.38875039       3.34476676      -0.00171409
H       -0.96098090      -3.34857801       0.00091573
H       -4.64282189      -1.15262784       0.00047952
C       -2.88672323      -2.39614099       0.00082047
H       -3.43771106      -3.33821256       0.00143716
