32
Properties=species:S:1:pos:R:3 Energy=-775.202847718731  
C        3.58304286      -1.20057592      -0.00284805
N        2.98495760      -2.41798997      -0.00215646
B        1.57421709      -2.68299812      -0.00072380
B        0.68596020      -1.30774794       0.00005564
C       -1.48337180       2.41711571       0.00120083
C       -2.88343184       2.44041750       0.00257542
C       -3.59422960       1.26671152       0.00374834
C       -0.74143102       1.23900445       0.00099941
C        2.86432982      -0.01281722      -0.00224137
C        1.41890825      -0.01484942      -0.00084028
C        1.45890237       2.42461209      -0.00090371
C        0.73723356       1.24908098      -0.00028032
C        3.56271381       1.23577791      -0.00295523
C        2.87840992       2.41604917      -0.00227064
C       -2.90719066       0.03223136       0.00348238
C       -1.48003025       0.01208913       0.00206180
C       -1.53556418      -2.34960360       0.00274035
N       -0.82863411      -1.21382672       0.00168250
C       -3.61782741      -1.19339627       0.00458319
H        4.67522436      -1.18344475      -0.00391054
H        3.63443254      -3.19796468      -0.00274161
H        1.28375814      -3.86374328      -0.00035580
H       -0.95945431       3.37121746       0.00023630
H       -3.40275342       3.40075251       0.00269158
H       -4.68569151       1.26275567       0.00485149
H        0.96156630       3.39442982      -0.00033384
H        4.65615045       1.23098720      -0.00402969
H        3.41611959       3.36641533      -0.00277183
H       -0.93831236      -3.26037534       0.00233389
H       -4.70938399      -1.17192885       0.00569542
C       -2.92891360      -2.37919534       0.00422344
H       -3.43881162      -3.34280069       0.00504106
