32
Properties=species:S:1:pos:R:3 Energy=-771.848178725508  
N        3.56308511      -1.17431051      -0.00155462
B        2.96300960      -2.45224468      -0.00161215
C        1.44549826      -2.45376418      -0.00102000
C        0.73389003      -1.28348749      -0.00055422
C       -1.46068016       2.41638433       0.00235590
C       -2.86833063       2.42434157       0.00295704
C       -3.56257200       1.24417055       0.00240366
C       -0.73418073       1.23930437       0.00125171
C        2.85917377       0.00935263      -0.00088616
C        1.44051558      -0.00833832      -0.00032792
C        1.47169689       2.42048532       0.00062128
C        0.74570418       1.23171631       0.00050130
C        3.55804010       1.22644199      -0.00074823
C        2.86605298       2.41855997      -0.00001731
C       -2.86909817       0.00760198       0.00128167
C       -1.44216746      -0.00305604       0.00076525
C       -1.49552824      -2.42108826      -0.00095683
C       -0.75131785      -1.25446974      -0.00025688
C       -3.57890989      -1.21811227       0.00063448
H        4.57090078      -1.06722921      -0.00195661
H        3.67079712      -3.42767419      -0.00215962
H        0.89956855      -3.39730222      -0.00101407
H       -0.94857474       3.37711404       0.00278907
H       -3.39827989       3.37890183       0.00384498
H       -4.65477586       1.23557980       0.00281021
H        0.95833480       3.37974894       0.00122095
H        4.65070918       1.21257650      -0.00121705
H        3.40922193       3.36570258       0.00008125
H       -0.99265741      -3.38658754      -0.00189790
H       -4.67096836      -1.19393951       0.00103151
C       -2.90174818      -2.40931145      -0.00051406
H       -3.44604306      -3.35574580      -0.00109020
