32
Properties=species:S:1:pos:R:3 Energy=-775.315245790803  
C        3.56254091      -1.24148233      -0.00283780
C        2.86704146      -2.40122867      -0.00282351
N        1.49159402      -2.43977783      -0.00211380
B        0.70803544      -1.25343468      -0.00135150
C       -1.46647947       2.40054360       0.00034998
C       -2.85917402       2.41065879       0.00101240
C       -3.53805352       1.21061921       0.00125585
C       -0.72052624       1.22174142      -0.00008334
C        2.88652102       0.03674258      -0.00210778
C        1.47081108       0.05894368      -0.00141414
C        1.48668345       2.46955011      -0.00059108
C        0.76103014       1.27688641      -0.00069941
C        3.58624924       1.25470575      -0.00204111
C        2.88367421       2.44787431      -0.00126850
C       -2.84298531      -0.00921068       0.00078960
C       -1.42313003      -0.02049560       0.00006494
B       -1.48308804      -2.49069097      -0.00024593
N       -0.75767462      -1.25394449      -0.00048624
C       -3.59484415      -1.24196697       0.00104977
H        4.65274411      -1.27237409      -0.00341124
H        3.37692564      -3.36704639      -0.00338208
H        1.06127751      -3.35608040      -0.00211232
H       -0.94603230       3.35715129       0.00014682
H       -3.39956168       3.35872557       0.00133371
H       -4.63027191       1.18772540       0.00180025
H        0.98670491       3.43706769       0.00004783
H        4.67862687       1.25505928      -0.00257545
H        3.42821381       3.39510332      -0.00117172
H       -0.86186625      -3.52567009      -0.00074480
H       -4.68584838      -1.13762524       0.00163572
C       -3.00073966      -2.45783153       0.00060654
H       -3.62457887      -3.35491403       0.00084992
