32
Properties=species:S:1:pos:R:3 Energy=-775.245550782573  
C        3.60574601      -1.25648950      -0.00405474
B        2.82419118      -2.52797479      -0.00729650
N        1.40009045      -2.35475256      -0.00622611
C        0.73595975      -1.17207576      -0.00239586
C       -1.60492150       2.53786850       0.00039486
C       -2.97366088       2.42111650       0.00003807
C       -3.58853416       1.15973847       0.00031535
B       -0.75565257       1.29864737       0.00074052
C        2.92744979      -0.04301885      -0.00117899
C        1.47888069       0.01091266      -0.00052974
C        1.53942451       2.42893715       0.00373227
C        0.79531484       1.27644294       0.00167241
C        3.62976524       1.21266054       0.00129712
C        2.96323741       2.39824322       0.00374535
C       -2.85677889      -0.01583414       0.00062965
N       -1.45595358       0.00777993       0.00023378
C       -1.42454288      -2.39112450       0.00204470
C       -0.74435241      -1.20324931      -0.00003333
C       -3.53595606      -1.27613140       0.00180727
H        4.69851347      -1.21427094      -0.00428282
H        3.24290214      -3.65807083      -0.01091332
H        0.82848529      -3.18786824      -0.00934499
H       -1.17529791       3.54279146       0.00036292
H       -3.61737397       3.30689386      -0.00027749
H       -4.67512376       1.07200289       0.00052374
H        1.03900632       3.39890690       0.00529656
H        4.72167179       1.18472398       0.00106002
H        3.51891390       3.33896377       0.00556233
H       -0.89473390      -3.34027829       0.00338312
H       -4.62597184      -1.25718401       0.00217560
C       -2.84301101      -2.43814073       0.00292352
H       -3.35312810      -3.40247474       0.00437477
