32
Properties=species:S:1:pos:R:3 Energy=-775.246386048544  
C        3.57241057      -1.24796196      -0.00131769
C        2.96328668      -2.45334882      -0.00313294
B        1.44787804      -2.49221006      -0.00353930
N        0.72144129      -1.25188955      -0.00212413
B       -1.44605448       2.49166043      -0.00572401
C       -2.96146332       2.45282531      -0.00609641
C       -3.57060579       1.24744726      -0.00403888
N       -0.71964869       1.25132950      -0.00302569
C        2.82317785      -0.01848299      -0.00029950
C        1.40381745      -0.02864737      -0.00113679
C        1.45180825       2.38762876       0.00121489
C        0.71501807       1.20951495      -0.00096953
C        3.52548912       1.19902486       0.00144572
C        2.84635449       2.39268414       0.00243123
C       -2.82139296       0.01795446      -0.00218897
C       -1.40203158       0.02809394      -0.00208307
C       -1.45005907      -2.38817499       0.00038432
C       -0.71323843      -1.21007444      -0.00123250
C       -3.52372392      -1.19953955      -0.00073153
H        4.66333207      -1.14934672      -0.00069947
H        3.57249281      -3.36044762      -0.00403323
H        0.86498039      -3.53576019      -0.00491783
H       -0.86312000       3.53519342      -0.00761783
H       -3.57065333       3.35993374      -0.00777146
H       -4.66152897       1.14884909      -0.00396020
H        0.92927585       3.33697187       0.00193581
H        4.61685344       1.17044189       0.00211431
H        3.38032457       3.34425643       0.00405354
H       -0.92755283      -3.33752795       0.00137008
H       -4.61508811      -1.17094077      -0.00076412
C       -2.84460623      -2.39320741       0.00070306
H       -3.37859366      -3.34477057       0.00195771
