32
Properties=species:S:1:pos:R:3 Energy=-775.238741471476  
C        3.58054691      -1.22385795      -0.00129206
C        2.87416425      -2.39970900       0.00024507
C        1.48264106      -2.35242636       0.00071194
N        0.79061827      -1.20884868      -0.00035841
C       -1.44370882       2.42190667      -0.00021832
C       -2.86247363       2.48697987       0.00062351
C       -3.60629833       1.34514565       0.00077410
C       -0.74962242       1.23529419      -0.00080125
C        2.88775065       0.00882060      -0.00216050
C        1.45948440       0.00139512      -0.00151248
C        1.47350910       2.40053436      -0.00349767
C        0.72675907       1.22535034      -0.00198363
C        3.58189536       1.23832573      -0.00358717
C        2.87392647       2.41340018      -0.00430563
B       -2.89844770      -0.00522625       0.00022612
N       -1.41933701       0.02293716      -0.00037455
C       -1.47213294      -2.53210483      -0.00070176
B       -0.73536120      -1.25588712      -0.00049971
C       -3.60587061      -1.34343326       0.00023229
H        4.67223847      -1.21912203      -0.00176753
H        3.36970410      -3.37055444       0.00110568
H        0.88812264      -3.26183856       0.00195876
H       -0.89764615       3.36193939      -0.00039082
H       -3.32339799       3.48027406       0.00107834
H       -4.69766973       1.42779291       0.00134316
H        0.96039801       3.35889110      -0.00410583
H        4.67307811       1.22997353      -0.00410756
H        3.39638066       3.37187296      -0.00548504
H       -1.01065709      -3.52336255      -0.00124995
H       -4.69882277      -1.40512595       0.00055608
C       -2.88584783      -2.51567219      -0.00033649
H       -3.41504408      -3.47799048      -0.00050498
