32
Properties=species:S:1:pos:R:3 Energy=-775.298887180924  
C        3.61625714      -1.16243719      -0.00051610
B        2.94592508      -2.50689608      -0.00179760
N        1.51640365      -2.46269463      -0.00179051
B        0.76441188      -1.27010430      -0.00077702
C       -1.44519130       2.39481862       0.00110630
C       -2.85118023       2.42193070       0.00080769
C       -3.56930955       1.25449274       0.00011489
C       -0.72791937       1.20810373       0.00073744
C        2.88941233       0.00627001       0.00051587
N        1.47366160       0.00891879       0.00032136
C        1.44568502       2.40444669       0.00265858
C        0.76229632       1.22366465       0.00127010
C        3.56030473       1.28191417       0.00190052
C        2.86832189       2.43989062       0.00299408
C       -2.89302329       0.01188281      -0.00038347
C       -1.46681220      -0.01714086      -0.00013088
C       -1.53416401      -2.43169319      -0.00153873
C       -0.78896925      -1.26825909      -0.00079060
C       -3.60803059      -1.21426275      -0.00115925
H        4.70013847      -1.03298780      -0.00025375
H        3.51085195      -3.57467745      -0.00275699
H        1.00646035      -3.33825625      -0.00259861
H       -0.93223037       3.35385365       0.00163643
H       -3.36305561       3.38618446       0.00114175
H       -4.66150103       1.26675635      -0.00009854
H        0.90695557       3.34594835       0.00353139
H        4.65022064       1.26356322       0.00206598
H        3.38277914       3.40264221       0.00411437
H       -1.03502885      -3.40410215      -0.00203305
H       -4.70014058      -1.18232963      -0.00132622
C       -2.94400368      -2.41306816      -0.00170277
H       -3.50037487      -3.35253521      -0.00230049
