32
Properties=species:S:1:pos:R:3 Energy=-771.817127971515  
B        3.62332623      -1.21146521      -0.00260708
C        2.86533817      -2.48976441      -0.00222938
C        1.49189753      -2.43236842      -0.00117973
C        0.75263525      -1.22433237      -0.00057261
C       -1.48134040       2.42996581      -0.00134822
C       -2.88632293       2.42061870      -0.00067796
C       -3.56760862       1.23080366       0.00070652
C       -0.74639164       1.25575543      -0.00061866
N        2.82868563       0.01383564      -0.00197940
C        1.43374621      -0.00082558      -0.00115719
C        1.45545449       2.42703738      -0.00086710
C        0.73106857       1.26367426      -0.00089526
C        3.50936177       1.21580541      -0.00214015
C        2.87243259       2.40747720      -0.00150689
C       -2.86522194       0.00084523       0.00128468
C       -1.43834483       0.00637813       0.00047810
C       -1.45629409      -2.41017286       0.00208315
C       -0.72355567      -1.23468194       0.00071809
C       -3.56197572      -1.23440298       0.00260678
H        4.81878829      -1.07000062      -0.00334602
H        3.33994123      -3.47358505      -0.00268440
H        0.92978971      -3.36768980      -0.00083683
H       -0.97834511       3.39603212      -0.00250274
H       -3.42855550       3.36831791      -0.00126322
H       -4.65969398       1.21213023       0.00131545
H        0.95153486       3.39191356      -0.00036644
H        4.59381022       1.12135126      -0.00277311
H        3.44751704       3.33303307      -0.00155184
H       -0.95134110      -3.37419544       0.00243732
H       -4.65392519      -1.22577429       0.00325787
C       -2.86422587      -2.41204538       0.00305528
H       -3.39402399      -3.36702058       0.00413462
