32
Properties=species:S:1:pos:R:3 Energy=-775.263965541216  
C        3.60024045      -1.22688605      -0.00315102
C        2.94102819      -2.40808569      -0.00335992
N        1.56590590      -2.47766500      -0.00270150
B        0.75536951      -1.30806318      -0.00178913
C       -1.48538187       2.41185093       0.00069512
C       -2.85855336       2.49482148       0.00140110
B       -3.63735053       1.23178324       0.00139292
C       -0.75364820       1.19792822      -0.00000162
C        2.89526273       0.03523185      -0.00221715
C        1.47808569       0.02456280      -0.00156295
C        1.45282267       2.43195218      -0.00029988
C        0.73383618       1.23318640      -0.00062517
C        3.57885555       1.26274742      -0.00191536
C        2.85116820       2.43818873      -0.00094940
N       -2.85913921      -0.00574003       0.00056965
C       -1.45985752      -0.02079130      -0.00011431
C       -1.54739796      -2.45434848      -0.00107011
C       -0.79719777      -1.30879469      -0.00097370
C       -3.56171809      -1.19215362       0.00045677
H        4.69118789      -1.22827686      -0.00370191
H        3.47856371      -3.35881996      -0.00406774
H        1.17460237      -3.41162988      -0.00286138
H       -0.91333672       3.34078405       0.00063803
H       -3.31370299       3.48776338       0.00190255
H       -4.83527075       1.10806339       0.00195696
H        0.94691929       3.39547360       0.00050249
H        4.67096928       1.28196976      -0.00241763
H        3.37316317       3.39817693      -0.00066725
H       -1.05762993      -3.43225065      -0.00173804
H       -4.64423384      -1.07119488       0.00104766
C       -2.96430048      -2.40727513      -0.00032759
H       -3.57061184      -3.31275502      -0.00038612
