32
Properties=species:S:1:pos:R:3 Energy=-775.259062242805  
N        3.52314357      -1.16014520       0.00066068
B        2.94969484      -2.44803672       0.00182236
C        1.44078786      -2.44108087       0.00175933
C        0.72323934      -1.26894958       0.00072882
C       -1.44253628       2.39920340       0.00250425
C       -2.84956921       2.40620442       0.00315236
C       -3.55604573       1.23560159       0.00227265
C       -0.71918232       1.22122539       0.00094246
C        2.81306053       0.01749160      -0.00017312
C        1.41341632       0.00453304       0.00011202
B        1.44072493       2.47362221      -0.00226910
N        0.71913792       1.22790199      -0.00040854
C        3.56495624       1.23285425      -0.00148142
C        2.95202583       2.43957132      -0.00270862
C       -2.86267930       0.00213498       0.00106996
C       -1.43389704      -0.01496664       0.00065472
C       -1.49387289      -2.43407935      -0.00065925
C       -0.75520753      -1.26613819       0.00013002
C       -3.57203060      -1.22443255       0.00033687
H        4.52933410      -1.03679776       0.00038653
H        3.66756779      -3.41492614       0.00258776
H        0.88493232      -3.37812809       0.00244090
H       -0.92955989       3.35335620       0.00320016
H       -3.36790471       3.36716029       0.00430774
H       -4.64778675       1.23186619       0.00262072
H        0.85982190       3.51685763      -0.00347894
H        4.65731550       1.13649633      -0.00162463
H        3.56198095       3.34581764      -0.00390056
H       -0.99139958      -3.39928257      -0.00128767
H       -4.66381635      -1.19638296       0.00056255
C       -2.89989357      -2.41761313      -0.00063745
H       -3.44792927      -3.36187956      -0.00128256
