32
Properties=species:S:1:pos:R:3 Energy=-775.259682762951  
N        3.53777540      -1.19402509      -0.00317245
B        2.92783659      -2.46307920      -0.00069060
C        1.41213680      -2.45133822       0.00074411
C        0.71422153      -1.27794627      -0.00060339
C       -1.47381340       2.44439769      -0.00012042
C       -2.91016225       2.41075897       0.00147935
C       -3.63022351       1.25014960       0.00231629
C       -0.69775621       1.31267672      -0.00075371
C        2.84374869      -0.00390684      -0.00381263
C        1.42341489       0.00927693      -0.00243873
C        1.52832352       2.44784811      -0.00453613
C        0.76942342       1.28148838      -0.00265476
C        3.57448758       1.19679190      -0.00575773
C        2.92148718       2.40976671      -0.00615597
C       -2.95938563      -0.01724065       0.00169638
B       -1.44068025      -0.00366761       0.00033542
C       -1.45133914      -2.41024845      -0.00003353
N       -0.72324213      -1.25913890      -0.00012741
C       -3.59120876      -1.24719050       0.00211719
H        4.54618576      -1.09440456      -0.00435780
H        3.61923894      -3.44949342       0.00000499
H        0.87514954      -3.39754866       0.00279170
H       -1.01737872       3.43936578      -0.00086242
H       -3.43778624       3.36754650       0.00194116
H       -4.72457942       1.28907480       0.00340188
H        1.02448636       3.41402462      -0.00474390
H        4.66607003       1.14867429      -0.00687169
H        3.49438531       3.33943633      -0.00767118
H       -0.91140236      -3.35315355      -0.00109018
H       -4.68457305      -1.32466935       0.00308251
C       -2.82561189      -2.43156758       0.00109198
H       -3.31712565      -3.40517774       0.00106123
