32
Properties=species:S:1:pos:R:3 Energy=-775.237393874304  
C        3.59279480      -1.25881220       0.00274698
C        2.84113096      -2.44983511       0.00285603
C        1.46576847      -2.42924292       0.00209495
N        0.73729472      -1.28349589       0.00121311
C       -1.55550162       2.49849159      -0.00132914
C       -2.97790145       2.37649142      -0.00197529
C       -3.60185210       1.16880544      -0.00186443
C       -0.75215231       1.38512086      -0.00057105
C        2.95724694      -0.02840015       0.00186856
B        1.43475812      -0.00050614       0.00105390
C        1.52761847       2.46435240       0.00005781
C        0.71911699       1.35425990       0.00014129
C        3.65353564       1.22626944       0.00168621
C        2.96204002       2.40330102       0.00081085
N       -2.88659733      -0.01319088      -0.00110364
B       -1.43820144       0.02884171      -0.00040474
C       -1.44268168      -2.45694073       0.00046640
C       -0.69511846      -1.31125415       0.00046144
C       -3.54996457      -1.22237753      -0.00101532
H        4.68701728      -1.32657203       0.00337177
H        3.33996606      -3.41969758       0.00355584
H        0.91944157      -3.37144247       0.00220132
H       -1.13575145       3.50936930      -0.00146278
H       -3.59765311       3.27461337      -0.00258722
H       -4.68966262       1.07503450      -0.00236398
H        1.08550674       3.46704675      -0.00060159
H        4.74873225       1.23898895       0.00225359
H        3.51162345       3.34789358       0.00067499
H       -0.99862956      -3.45419402       0.00102178
H       -4.64095868      -1.17982576      -0.00156838
C       -2.87132243      -2.39705515      -0.00027649
H       -3.44200071      -3.32647017      -0.00024633
