32
Properties=species:S:1:pos:R:3 Energy=-775.250012251278  
C        3.51308448      -1.24667508      -0.00186947
C        2.80220341      -2.43165994      -0.00281546
C        1.41037563      -2.40476313      -0.00218892
N        0.71406408      -1.26716618      -0.00068856
C       -1.51195630       2.43670735       0.00359722
C       -2.91593062       2.39957504       0.00409408
C       -3.57885027       1.20046411       0.00330021
C       -0.73747045       1.28484293       0.00229703
N        2.90836919      -0.05309194      -0.00038566
B        1.44003738       0.01133045       0.00027905
C        1.50798325       2.46612725       0.00264410
C        0.72076384       1.30210420       0.00180220
B        3.68389313       1.21019451       0.00058176
C        2.90518126       2.47173133       0.00213332
C       -2.84642601      -0.01410911       0.00194949
C       -1.41647602       0.01256744       0.00140499
C       -1.44384647      -2.43019859      -0.00072259
C       -0.72936713      -1.24836256      -0.00001015
C       -3.53686273      -1.25162683       0.00115445
H        4.60709192      -1.24513629      -0.00232159
H        3.32026760      -3.38886222      -0.00405664
H        0.86807176      -3.34793555      -0.00296702
H       -1.01850978       3.40856055       0.00426643
H       -3.47577872       3.33762693       0.00514226
H       -4.66961652       1.15654515       0.00369153
H        1.00030836       3.43859551       0.00378924
H        4.88711677       1.08458794      -0.00001716
H        3.39553070       3.44883320       0.00292132
H       -0.94519785      -3.39651962      -0.00176224
H       -4.62880544      -1.24104850       0.00160816
C       -2.84961025      -2.43432689      -0.00013973
H       -3.37937483      -3.38862318      -0.00074361
