32
Properties=species:S:1:pos:R:3 Energy=-775.235419418062  
B        3.62765067      -1.24826284       0.00247601
C        2.83266705      -2.50323594       0.00112673
C        1.46091467      -2.41300033       0.00100038
C        0.74506409      -1.18822343       0.00212112
C       -1.59254940       2.54035944       0.00193698
C       -2.96572605       2.42864109       0.00120582
C       -3.58270177       1.17435141       0.00107133
B       -0.76157581       1.29638854       0.00247100
N        2.86194396      -0.00546467       0.00332656
C        1.46988794       0.01653981       0.00300876
C        1.53281807       2.43530124       0.00457102
C        0.79449385       1.28057656       0.00348785
C        3.56333858       1.18712855       0.00444137
C        2.95095023       2.39336527       0.00514036
C       -2.85586104      -0.01068467       0.00155902
N       -1.45585109       0.00488157       0.00205061
C       -1.43371558      -2.38858802       0.00284810
C       -0.73749108      -1.20580724       0.00235050
C       -3.54384089      -1.26225511       0.00171248
H        4.82645135      -1.13962861       0.00285466
H        3.27750646      -3.50071764       0.00015539
H        0.89158664      -3.34200398      -0.00016761
H       -1.16168501       3.54490436       0.00207860
H       -3.60533873       3.31745299       0.00078055
H       -4.66952839       1.08948413       0.00065925
H        1.02857902       3.40282183       0.00494842
H        4.64613641       1.07127911       0.00467747
H        3.54907306       3.30459064       0.00603496
H       -0.90093575      -3.33269830       0.00350711
H       -4.63348970      -1.23858904       0.00131877
C       -2.84832541      -2.42449663       0.00249752
H       -3.36194452      -3.38756451       0.00282563
