32
Properties=species:S:1:pos:R:3 Energy=-775.237294175552  
C        3.57787120      -1.20330702       0.00194565
C        2.89760028      -2.38378137       0.00268280
C        1.47398963      -2.45109339       0.00284303
C        0.71385788      -1.30448984       0.00226895
C       -1.48500191       2.41014469       0.00055241
C       -2.90029254       2.47976580       0.00066144
C       -3.63015423       1.33233852       0.00127039
C       -0.75602858       1.24613185       0.00102359
N        2.90956012      -0.00112598       0.00132023
B        1.46043407      -0.00056027       0.00147259
C        1.47590669       2.44996827       0.00003477
C        0.71488247       1.30395586       0.00080473
C        3.57881060       1.20053285       0.00054136
C        2.89946403       2.38153953      -0.00008378
B       -2.90197834       0.00115569       0.00186399
N       -1.42201248       0.00057146       0.00172916
C       -1.48689816      -2.40894968       0.00302221
C       -0.75700788      -1.24551230       0.00233982
C       -3.63120335      -1.32945259       0.00260847
H        4.66902000      -1.15780018       0.00181896
H        3.47542301      -3.30914184       0.00316254
H        1.03024291      -3.44973238       0.00343109
H       -0.92880741       3.34590241       0.00005403
H       -3.36599999       3.47054567       0.00023793
H       -4.72266409       1.38949966       0.00134298
H        1.03293075       3.44895327      -0.00051802
H        4.66992388       1.15417130       0.00044804
H        3.47801642       3.30644361      -0.00070298
H       -0.93144964      -3.34515156       0.00349125
H       -4.72375676      -1.38574945       0.00272197
C       -2.90224518      -2.47745291       0.00316060
H       -3.36873502      -3.46786228       0.00372239
