32
Properties=species:S:1:pos:R:3 Energy=-775.285560767926  
N        3.56009935      -1.18103660       0.00049275
B        2.95703042      -2.45894275       0.00186180
C        1.44343186      -2.45904661       0.00219000
C        0.72847784      -1.28839855       0.00104024
C       -1.45665743       2.43589970      -0.00205632
C       -2.85283564       2.46175414      -0.00196563
C       -3.55517560       1.27368038      -0.00083235
C       -0.73586765       1.24381013      -0.00099321
C        2.85678072       0.00162864      -0.00037780
C        1.43725594      -0.01372777      -0.00018560
C        1.47452162       2.41550716      -0.00197556
C        0.74482621       1.22918841      -0.00106901
C        3.55844548       1.21775253      -0.00141753
C        2.86922440       2.41056873      -0.00217504
C       -2.88036663       0.04004349       0.00017917
C       -1.45901477       0.02248573       0.00009878
C       -1.47669259      -2.40666670       0.00181961
C       -0.75476747      -1.24859764       0.00103591
B       -3.64692867      -1.27960009       0.00123480
H        4.56778726      -1.07422683       0.00019919
H        3.66423226      -3.43549814       0.00262351
H        0.90300312      -3.40645300       0.00333845
H       -0.93129746       3.38971910      -0.00304046
H       -3.37521992       3.42052171      -0.00282346
H       -4.64782496       1.27875346      -0.00074567
H        0.96506220       3.37659057      -0.00252937
H        4.65107463       1.20092421      -0.00156402
H        3.41418328       3.35676791      -0.00292528
H       -0.98252213      -3.37680577       0.00235051
H       -4.84671011      -1.38643552       0.00143832
N       -2.84385963      -2.44406597       0.00195614
H       -3.25620363      -3.36922485       0.00257201
