32
Properties=species:S:1:pos:R:3 Energy=-775.243505588993  
N        3.56738493      -1.31047231       0.00259280
C        2.84860251      -2.45192626       0.00213178
C        1.47919788      -2.44914170       0.00121044
C        0.73233640      -1.23596464       0.00070077
C       -1.51482002       2.44218545      -0.00110065
C       -2.88745362       2.49437302      -0.00205270
B       -3.64184660       1.21213544      -0.00241786
C       -0.76925061       1.23533182      -0.00049598
B        2.94218511      -0.01325617       0.00209772
C        1.41128217      -0.01893158       0.00106728
C        1.45175439       2.39991096       0.00088361
C        0.70590898       1.24168278       0.00049578
C        3.67298009       1.31687293       0.00249201
C        2.88414429       2.43165376       0.00185571
N       -2.84289332      -0.01001476      -0.00172659
C       -1.44566271       0.01161088      -0.00081735
C       -1.46000793      -2.42167681      -0.00045109
C       -0.74194085      -1.25491857      -0.00020821
C       -3.51545210      -1.21410451      -0.00197762
H        4.57670618      -1.40790194       0.00328236
H        3.40194368      -3.39417578       0.00252014
H        0.98353249      -3.41714401       0.00085936
H       -0.95083638       3.37675547      -0.00077428
H       -3.36672117       3.47605433      -0.00247106
H       -4.83699629       1.06602278      -0.00319994
H        0.95230233       3.36827633       0.00043312
H        4.76020168       1.44718903       0.00321566
H        3.34050499       3.42819917       0.00207156
H       -0.95118370      -3.38405960       0.00006302
H       -4.60070813      -1.12489125      -0.00270437
C       -2.87736975      -2.40654368      -0.00135996
H       -3.45163121      -3.33249132      -0.00157117
