32
Properties=species:S:1:pos:R:3 Energy=-775.314500963881  
N        3.60652257      -1.31234552      -0.00202916
B        2.85718779      -2.50243595      -0.00298901
N        1.42844555      -2.38008920      -0.00261284
C        0.73475366      -1.20024357      -0.00142010
C       -1.49983159       2.42547580       0.00043536
C       -2.90562250       2.40862167       0.00051571
C       -3.58371292       1.21651313       0.00030476
C       -0.74962394       1.26065911       0.00009472
B        2.96839190      -0.02319107      -0.00095045
C        1.42944586      -0.00449920      -0.00074090
C        1.46681595       2.41785370       0.00098510
C        0.72846544       1.26110701       0.00016755
C        3.68255706       1.32805004       0.00003422
C        2.90354124       2.44559618       0.00094830
C       -2.86911083      -0.00620608      -0.00007550
C       -1.44416842       0.01029746      -0.00029154
C       -1.45407517      -2.41814449      -0.00080634
C       -0.73780076      -1.23536120      -0.00084880
C       -3.55510818      -1.24861340      -0.00020040
H        4.61857397      -1.36850555      -0.00219674
H        3.34624948      -3.60333292      -0.00410970
H        0.87774672      -3.22681208      -0.00355164
H       -0.99732689       3.39203829       0.00065705
H       -3.45217066       3.35389147       0.00078011
H       -4.67555836       1.19113351       0.00042476
H        0.96321394       3.38480859       0.00170555
H        4.77044857       1.45681499       0.00005812
H        3.36435219       3.44001981       0.00168610
H       -0.94706561      -3.38421783      -0.00092892
H       -4.64745970      -1.24420999      -0.00001235
C       -2.86225337      -2.43015179      -0.00048269
H       -3.39222263      -3.38435847      -0.00047699
