32
Properties=species:S:1:pos:R:3 Energy=-775.270560539794  
N        3.57483611      -1.19659565       0.00164595
B        2.96743225      -2.47204313       0.00118235
C        1.45191138      -2.46767902       0.00092489
C        0.74786597      -1.29030759       0.00120445
B       -1.50232867       2.53090818       0.00059699
N       -2.93200289       2.39396498       0.00031848
C       -3.56634418       1.21358261       0.00044169
C       -0.70994102       1.24817449       0.00102502
C        2.87774016      -0.00859448       0.00175020
C        1.45959508      -0.02118498       0.00148820
C        1.49465529       2.40740590       0.00182123
C        0.76280677       1.21953076       0.00145837
C        3.58026837       1.20689551       0.00210386
C        2.88865252       2.40062196       0.00215870
C       -2.86204965       0.02187563       0.00078089
C       -1.41458992       0.03341960       0.00100088
C       -1.48715499      -2.39804074       0.00149014
C       -0.73670038      -1.24674650       0.00123417
C       -3.58005064      -1.21452056       0.00096214
H        4.58314800      -1.09530106       0.00187642
H        3.67246311      -3.45052191       0.00106297
H        0.90122873      -3.40885043       0.00055475
H       -1.08674393       3.65857236       0.00043214
H       -3.52022175       3.22024203       0.00002873
H       -4.65890972       1.21681246       0.00027353
H        0.96734386       3.35900122       0.00183856
H        4.67300062       1.19034312       0.00232103
H        3.43510449       3.34628872       0.00244879
H       -0.98692899      -3.36551455       0.00180773
H       -4.67241599      -1.18751446       0.00080936
C       -2.90725701      -2.39541208       0.00135572
H       -3.44437795      -3.34543097       0.00155404
