32
Properties=species:S:1:pos:R:3 Energy=-775.270913095783  
N        3.56781602      -1.16227929       0.00435836
B        2.97502756      -2.44558331       0.00506800
C        1.45766004      -2.45816348       0.00435970
C        0.73625417      -1.29306774       0.00306337
N       -1.41616452       2.36540106      -0.00057287
B       -2.84479574       2.51478595      -0.00135937
C       -3.59598599       1.22730462      -0.00084365
C       -0.73649520       1.19751958       0.00058760
C        2.85552153       0.01389310       0.00317211
C        1.43891492      -0.01755071       0.00249454
C        1.44566401       2.41529326       0.00085053
C        0.73581595       1.21690483       0.00130811
C        3.54169534       1.24023025       0.00264738
C        2.84100740       2.42642193       0.00150650
C       -2.89575377       0.02408923       0.00028337
C       -1.44744291      -0.00514562       0.00104943
C       -1.48370172      -2.42658626       0.00249526
C       -0.74777055      -1.26815179       0.00221714
C       -3.58653797      -1.23548506       0.00070967
H        4.57513301      -1.05023462       0.00474777
H        3.69035914      -3.41477833       0.00613742
H        0.91737454      -3.40505972       0.00485797
H       -0.84639875       3.20155996      -0.00093482
H       -3.28681868       3.63579529      -0.00236056
H       -4.68741066       1.16146770      -0.00134608
H        0.93634738       3.37901241      -0.00002421
H        4.63429260       1.23755527       0.00317037
H        3.37544827       3.37819175       0.00111240
H       -0.98465888      -3.39403949       0.00329824
H       -4.67842023      -1.22036773       0.00014789
C       -2.90443658      -2.41105890       0.00175187
H       -3.44311036      -3.36116454       0.00203483
