32
Properties=species:S:1:pos:R:3 Energy=-775.249383146441  
N        3.62996458      -1.27530713      -0.00143450
C        2.93461307      -2.43111281      -0.00135215
C        1.56043614      -2.44916488      -0.00015202
C        0.79448022      -1.25612901       0.00095019
C       -1.46856445       2.40095556       0.00153264
C       -2.88201366       2.42934352       0.00248616
C       -3.56373423       1.25694588       0.00395365
C       -0.76621585       1.22408714       0.00214606
B        2.98182396       0.01225279      -0.00035131
C        1.45702155      -0.02767120       0.00071188
C        1.43949762       2.38877539       0.00236690
C        0.71960923       1.21094241       0.00176571
C        3.68283287       1.35892720       0.00003542
C        2.86809317       2.45649797       0.00150022
C       -2.86686055       0.01204637       0.00420121
N       -1.46923462       0.00490844       0.00311078
C       -1.59375455      -2.53062664       0.00394101
B       -0.76365430      -1.28766584       0.00270220
C       -3.59090362      -1.17745426       0.00536531
H        4.64103220      -1.35525584      -0.00221515
H        3.50972914      -3.36071848      -0.00221875
H        1.06498087      -3.42006642      -0.00004778
H       -0.92933340       3.34308379       0.00029466
H       -3.40597302       3.38664613       0.00206827
H       -4.65337598       1.22320357       0.00482237
H        0.92490583       3.34860351       0.00366523
H        4.76636003       1.51864290      -0.00058689
H        3.29907986       3.46387505       0.00206929
H       -1.15501318      -3.53161475       0.00383551
H       -4.67812958      -1.09628794       0.00624437
C       -2.96995406      -2.42740060       0.00529774
H       -3.60527376      -3.31932695       0.00626650
