32
Properties=species:S:1:pos:R:3 Energy=-775.249743528283  
N        3.56977446      -1.31117144       0.00174320
C        2.83765056      -2.44254639       0.00154947
C        1.46664433      -2.43104192       0.00080117
C        0.72718136      -1.21485537       0.00021581
C       -1.47119350       2.40300141      -0.00049932
C       -2.88663086       2.47247340      -0.00110380
C       -3.63021677       1.33212365      -0.00179181
C       -0.75265055       1.23234382      -0.00052897
B        2.95272784      -0.01065755       0.00120302
C        1.42504593      -0.01022271       0.00046128
C        1.46321778       2.40497801      -0.00011919
C        0.72383141       1.24260004      -0.00007580
C        3.68109774       1.31954728       0.00122691
C        2.89358483       2.43658799       0.00051930
B       -2.90975068       0.00047897      -0.00173448
N       -1.43280448       0.00820703      -0.00098926
C       -1.44846006      -2.39269956      -0.00122380
C       -0.74686575      -1.21280206      -0.00069550
C       -3.61422703      -1.34557235      -0.00232042
H        4.57795897      -1.42008847       0.00226224
H        3.38005682      -3.39109254       0.00200294
H        0.97074526      -3.39741053       0.00068261
H       -0.91770330       3.33834640       0.00002566
H       -3.34664620       3.46593776      -0.00101169
H       -4.72172591       1.40200906      -0.00229173
H        0.96281649       3.37213036      -0.00068447
H        4.76821213       1.45045249       0.00170675
H        3.35067702       3.43240270       0.00042316
H       -0.88744837      -3.32296123      -0.00098632
H       -4.70534299      -1.42397380      -0.00293718
C       -2.86496140      -2.47995237      -0.00205633
H       -3.31504610      -3.47765465      -0.00243687
