32
Properties=species:S:1:pos:R:3 Energy=-775.159096138562  
C        3.60423716      -1.23302220      -0.00194864
C        2.88689983      -2.41043393      -0.00186629
C        1.50889889      -2.36285260      -0.00088968
N        0.79533092      -1.20343309      -0.00001934
C       -1.50270245       2.57612451       0.00192081
C       -2.89878948       2.46245889       0.00273952
C       -3.56379491       1.23804551       0.00307853
B       -0.72064395       1.29222379       0.00146903
C        2.91097432      -0.00270636      -0.00104171
C        1.47851837      -0.00221311      -0.00011098
C        1.51052861       2.35840415       0.00089531
N        0.79616112       1.19947725       0.00073146
C        3.60508682       1.22713061      -0.00100951
C        2.88856169       2.40503665       0.00000822
C       -2.86889945      -0.00070802       0.00254853
C       -1.44808268      -0.00119769       0.00172302
C       -1.50448770      -2.57848130       0.00123835
B       -0.72153573      -1.29512233       0.00100690
C       -3.56465183      -1.23897970       0.00277098
H        4.69468066      -1.22608150      -0.00268654
H        3.38157528      -3.38215674      -0.00254260
H        0.90786250      -3.26737248      -0.00076483
H       -1.11229375       3.60011329       0.00161862
H       -3.51142142       3.37042260       0.00310935
H       -4.65770445       1.22829262       0.00372364
H        0.91012140       3.26334162       0.00177146
H        4.69552555       1.21943411      -0.00173022
H        3.38390886       3.37641705       0.00016102
H       -1.11478704      -3.60273920       0.00078636
H       -4.65855460      -1.22846611       0.00344774
C       -2.90049490      -2.46385161       0.00214431
H       -3.51375516      -3.37139084       0.00236575
