32
Properties=species:S:1:pos:R:3 Energy=-775.249300777293  
N        3.58719627      -1.29720571      -0.00052104
C        2.88390555      -2.44679375      -0.00039384
C        1.51321570      -2.44949381      -0.00033198
C        0.74877903      -1.25122168      -0.00040240
C       -1.50881338       2.46926162      -0.00053772
C       -2.93617438       2.38516198      -0.00047235
C       -3.59810971       1.19725478      -0.00038279
C       -0.73379050       1.33687425      -0.00051232
B        2.94536638      -0.00835462      -0.00059246
C        1.41657805      -0.00996414      -0.00052068
C        1.50875958       2.42504421      -0.00072281
C        0.74390328       1.28158577      -0.00058790
C        3.70056506       1.31529369      -0.00073161
C        2.94163381       2.44804632      -0.00079004
N       -2.91250974      -0.00018851      -0.00034841
B       -1.46339097       0.00962010      -0.00040210
C       -1.48528670      -2.45766019      -0.00028435
C       -0.72748311      -1.31389626      -0.00035527
C       -3.58110987      -1.20374288      -0.00026853
H        4.59785523      -1.38095154      -0.00055927
H        3.44758261      -3.38307670      -0.00033953
H        1.01332283      -3.41699104      -0.00022033
H       -1.07092929       3.47192483      -0.00061073
H       -3.52724809       3.30235638      -0.00049382
H       -4.68853549       1.13550725      -0.00033779
H        1.00483311       3.39386084      -0.00078087
H        4.79136092       1.41904203      -0.00078044
H        3.41457930       3.43654022      -0.00089319
H       -1.03658118      -3.45531294      -0.00026005
H       -4.67247574      -1.15417203      -0.00023048
C       -2.91231658      -2.38920295      -0.00023894
H       -3.49635482      -3.31059434      -0.00017835
