32
Properties=species:S:1:pos:R:3 Energy=-775.223483160520  
C        3.59128344      -1.23174441      -0.00105991
C        2.90681502      -2.42431211      -0.00159531
C        1.51204026      -2.39905244      -0.00113953
N        0.82559720      -1.25857560      -0.00022720
C       -1.51320387       2.39703881       0.00255862
C       -2.90797859       2.42229853       0.00299668
C       -3.59244679       1.22973058       0.00254044
N       -0.82676048       1.25656209       0.00172990
C        2.89498978      -0.00153180      -0.00006952
C        1.46204095      -0.03160955       0.00033162
C        1.50856786       2.52364653       0.00193620
B        0.69989984       1.28472914       0.00135652
C        3.58984100       1.23048623       0.00050931
C        2.91106803       2.43376092       0.00148078
C       -2.89615299      -0.00048176       0.00162686
C       -1.46320417       0.02959563       0.00121526
C       -1.50973068      -2.52566064      -0.00026514
B       -0.70106286      -1.28674287       0.00021991
C       -3.59100393      -1.23250011       0.00112491
H        4.68417579      -1.22043048      -0.00139668
H        3.42319605      -3.38433150      -0.00236806
H        0.92746635      -3.31693019      -0.00151338
H       -0.92862995       3.31491637       0.00288359
H       -3.42435959       3.38231816       0.00369552
H       -4.68533935       1.21841654       0.00287879
H        1.10311700       3.54034560       0.00271609
H        4.68155282       1.21037296       0.00017970
H        3.50631752       3.35318619       0.00191410
H       -1.10428016      -3.54235995      -0.00098428
H       -4.68271584      -1.21238770       0.00147145
C       -2.91223060      -2.43577469       0.00021651
H       -3.50748029      -3.35519939      -0.00014420
