32
Properties=species:S:1:pos:R:3 Energy=-775.217349589652  
C        3.56449072      -1.24975021       0.00240924
C        2.95120792      -2.45876329       0.00452415
B        1.43945276      -2.50581445       0.00523953
N        0.70797664      -1.25683157       0.00318310
C       -1.51186440       2.38292567       0.00335244
C       -2.90724358       2.41088345       0.00400577
C       -3.58628665       1.22335488       0.00378667
N       -0.81118735       1.25057570       0.00266642
C        2.81899875      -0.01761663       0.00125445
C        1.40402916      -0.02916838       0.00183686
C        1.49839693       2.54872190      -0.00025672
B        0.70381388       1.29337164       0.00130787
C        3.52504211       1.20565757      -0.00025332
C        2.89137318       2.43938334      -0.00103606
C       -2.87657366      -0.00455467       0.00312006
C       -1.44596557       0.02087568       0.00283594
C       -1.45835585      -2.38414312       0.00156718
C       -0.70577938      -1.21100778       0.00257907
C       -3.57120032      -1.22966514       0.00265204
H        4.65719871      -1.16233259       0.00173451
H        3.56166257      -3.36548563       0.00564098
H        0.85736805      -3.55349859       0.00760076
H       -0.92518281       3.29875803       0.00328805
H       -3.42137842       3.37202910       0.00454989
H       -4.67765510       1.19646482       0.00409872
H        1.09530204       3.56712934      -0.00092751
H        4.61692632       1.15973679      -0.00075417
H        3.51345638       3.34036787      -0.00224049
H       -0.93364509      -3.33237875       0.00072212
H       -4.66207851      -1.22300637       0.00286794
C       -2.85565614      -2.39956326       0.00168762
H       -3.36953496      -3.36275617       0.00100099
