32
Properties=species:S:1:pos:R:3 Energy=-775.278508774391  
C        3.62062726      -1.18370345      -0.00141850
N        3.03785318      -2.38905952      -0.00152624
B        1.60599923      -2.56086125      -0.00106284
C        0.78339782      -1.30884537      -0.00049918
C       -1.47922154       2.46051162       0.00037743
C       -2.87642973       2.46610141       0.00077277
C       -3.59731086       1.28498083       0.00106088
C       -0.76670171       1.25861188       0.00030819
C        2.88444502      -0.00769045      -0.00088822
C        1.43732135      -0.06121305      -0.00046807
C        1.45909975       2.37450844       0.00028003
C        0.72276622       1.21342935       0.00002768
C        3.58033601       1.24127327      -0.00070560
C        2.88013643       2.40550277      -0.00009061
C       -2.91503077       0.05615650       0.00088715
C       -1.49862173       0.04753703       0.00049413
N       -1.58190805      -2.45285667       0.00029885
B       -0.75763076      -1.28800674       0.00011262
C       -3.61969982      -1.20733835       0.00106272
H        4.71335647      -1.14704007      -0.00175637
H        3.66215900      -3.18873935      -0.00193330
H        1.19930377      -3.70036460      -0.00116550
H       -0.96646063       3.42170674       0.00008021
H       -3.40338153       3.42331544       0.00083701
H       -4.68985798       1.30202381       0.00138117
H        0.94549796       3.33550773       0.00080268
H        4.67320041       1.23835882      -0.00103266
H        3.39358071       3.36857306       0.00012049
H       -1.17418360      -3.38044996       0.00003923
H       -4.71064591      -1.21144986       0.00142232
C       -2.95360589      -2.38595164       0.00077264
H       -3.49052446      -3.33759392       0.00090230
