32
Properties=species:S:1:pos:R:3 Energy=-775.281388748741  
N        3.56777860      -1.18217262      -0.00260657
B        2.95823500      -2.45356578      -0.00159972
C        1.43640922      -2.45914662      -0.00020330
C        0.73314356      -1.28866633      -0.00000920
C       -1.43675547       2.41340711       0.00120140
C       -2.84508230       2.43337147       0.00252695
C       -3.54700003       1.25794399       0.00336047
C       -0.72511770       1.22758389       0.00073901
C        2.89375492       0.02435899      -0.00235252
C        1.44547994      -0.01152222      -0.00101481
N        1.42523949       2.36795146      -0.00166171
C        0.74782624       1.19423297      -0.00068418
C        3.59767105       1.21513875      -0.00333977
B        2.85256873       2.50500014      -0.00302702
C       -2.86542851       0.01349520       0.00292063
C       -1.44044450      -0.00931657       0.00162940
C       -1.50358149      -2.42168106       0.00198838
C       -0.75202945      -1.25897878       0.00122245
C       -3.58248651      -1.20714420       0.00372021
H        4.57668110      -1.08608424      -0.00357198
H        3.66069280      -3.43331228      -0.00191359
H        0.88995601      -3.40220402       0.00064512
H       -0.92931530       3.37893336       0.00054413
H       -3.36716884       3.39190975       0.00286475
H       -4.63916360       1.25957236       0.00436923
H        0.85581804       3.20313416      -0.00137178
H        4.68963089       1.14613697      -0.00431759
H        3.30938506       3.62006054      -0.00377585
H       -1.00546025      -3.38969730       0.00161904
H       -4.67429968      -1.17834452       0.00470234
C       -2.90924557      -2.40155913       0.00323642
H       -3.45808372      -3.34532148       0.00382259
