32
Properties=species:S:1:pos:R:3 Energy=-775.233239843666  
N        3.56855352      -1.31618593      -0.00057374
C        2.87942623      -2.48161177      -0.00071112
C        1.50686473      -2.57351938      -0.00045454
B        0.72583705      -1.27878950       0.00002066
C       -1.49524918       2.40574018       0.00190193
C       -2.89839837       2.41668426       0.00222146
C       -3.59881582       1.23852688       0.00179818
C       -0.73414451       1.24264927       0.00114703
B        2.93714806      -0.00199181      -0.00010034
C        1.42714457       0.02321686       0.00028202
C        1.46760559       2.45231013       0.00072459
C        0.74432903       1.26759162       0.00072025
C        3.66747806       1.33255339      -0.00000897
C        2.89041283       2.46766612       0.00037362
C       -2.89322569       0.01324202       0.00108743
C       -1.46540792       0.00532274       0.00080348
C       -1.50722176      -2.35671947      -0.00022560
N       -0.81772049      -1.22147796       0.00019180
C       -3.59028166      -1.21709526       0.00064257
H        4.57761459      -1.40404317      -0.00082478
H        3.49614831      -3.38830124      -0.00105663
H        1.11828052      -3.59612214      -0.00060445
H       -0.97671967       3.36325255       0.00227000
H       -3.42542924       3.37278733       0.00280792
H       -4.69002970       1.22138194       0.00200957
H        0.96538561       3.42109225       0.00096833
H        4.75600086       1.46822481      -0.00024353
H        3.36482398       3.45610456       0.00041773
H       -0.91136685      -3.26782463      -0.00072319
H       -4.68255001      -1.20194696       0.00084555
C       -2.90250789      -2.40280032      -0.00003785
H       -3.40837376      -3.36804722      -0.00041967
