32
Properties=species:S:1:pos:R:3 Energy=-775.256034559346  
B        3.66860815      -1.28302900       0.00202193
N        2.91040641      -2.45466477       0.00234742
N        1.52402655      -2.46913839       0.00199449
B        0.75586296      -1.29469976       0.00136515
C       -1.46751539       2.39699373      -0.00069144
C       -2.87642287       2.41732719      -0.00102987
C       -3.57956085       1.24387714      -0.00073565
C       -0.73748265       1.22225054      -0.00008313
C        2.91375558       0.07000036       0.00128419
C        1.49853818       0.05451382       0.00094610
C        1.46621769       2.46206615      -0.00026891
C        0.75471025       1.25622942       0.00019949
C        3.58373368       1.30017308       0.00084898
C        2.85937254       2.48409487       0.00006098
C       -2.89042062       0.00450522      -0.00005465
C       -1.46315173      -0.02398217       0.00028766
C       -1.55942535      -2.44936616       0.00140063
C       -0.79931995      -1.29467040       0.00102856
C       -3.61606506      -1.21486118       0.00031862
H        4.86862739      -1.40060300       0.00230236
H        3.32465847      -3.37757060       0.00257474
H        1.13034253      -3.40097873       0.00248877
H       -0.95394473       3.35718001      -0.00091956
H       -3.39733996       3.37696190      -0.00152860
H       -4.67199133       1.24216166      -0.00100239
H        0.94441201       3.41835131      -0.00093328
H        4.67638673       1.32559001       0.00111494
H        3.37741918       3.44607814      -0.00032133
H       -1.06639764      -3.42662704       0.00199952
H       -4.70795780      -1.17026753       0.00002779
C       -2.96762333      -2.42241709       0.00104100
H       -3.53383331      -3.35617083       0.00134521
