32
Properties=species:S:1:pos:R:3 Energy=-775.250843228591  
C        3.59106014      -1.22140754      -0.00061205
B        2.84499576      -2.51213793      -0.00251797
N        1.41483819      -2.36942048      -0.00245504
C        0.73147863      -1.19843283      -0.00084283
C       -1.47425038       2.42750588       0.00021334
C       -2.89342562       2.41468932      -0.00032316
C       -3.57999837       1.24062376      -0.00057101
C       -0.73888029       1.26562456       0.00041583
C        2.89002948      -0.01842299       0.00063667
C        1.44155350       0.00654474       0.00039072
C        1.47210566       2.42779404       0.00288234
C        0.73696377       1.26576932       0.00132541
C        3.57808580       1.24132562       0.00224276
C        2.89128347       2.41525596       0.00338483
C       -2.89169467      -0.01899073      -0.00043144
C       -1.44322326       0.00626109      -0.00013061
N       -1.41604047      -2.36969987      -0.00010434
C       -0.73291190      -1.19857736      -0.00031797
C       -3.59248872      -1.22211452      -0.00060762
H        4.68232147      -1.15451116      -0.00030708
H        3.29045298      -3.63079508      -0.00417103
H        0.87083564      -3.22210122      -0.00430880
H       -0.97420674       3.39475440       0.00047667
H       -3.42989943       3.36597317      -0.00047373
H       -4.67170642       1.22809961      -0.00088859
H        0.97187195       3.39494361       0.00376080
H        4.66979584       1.22901609       0.00252195
H        3.42757004       3.36664428       0.00465405
H       -0.87186872      -3.22227486       0.00072793
H       -4.68376270      -1.15543353      -0.00084213
B       -2.84617031      -2.51269977      -0.00023049
H       -3.29140535      -3.63144646       0.00006837
