32
Properties=species:S:1:pos:R:3 Energy=-775.292660345117  
B        3.64341549      -1.30477290      -0.00132927
N        2.81458015      -2.44937945      -0.00147115
C        1.44658210      -2.37941926      -0.00141611
C        0.74109399      -1.21148151      -0.00122044
N       -1.56362141       2.46331747      -0.00070832
C       -2.93839995       2.39795436      -0.00066405
C       -3.60150406       1.21950625      -0.00078866
B       -0.74679935       1.29744923      -0.00090570
C        2.90353090       0.03014594      -0.00115128
C        1.48109378       0.05397997      -0.00110389
C        1.55946593       2.47596228      -0.00094701
C        0.80337155       1.30707842      -0.00098587
C        3.61184837       1.24733121      -0.00107620
C        2.95689037       2.46382990      -0.00098689
C       -2.89760899      -0.04406696      -0.00095195
C       -1.48016587      -0.03891057      -0.00102020
C       -1.47135837      -2.44906755      -0.00119814
C       -0.74976388      -1.25283336      -0.00114937
C       -3.58673555      -1.26841081      -0.00102774
H        4.84119818      -1.43790269      -0.00136376
H        3.20408341      -3.38413886      -0.00162830
H        0.93829679      -3.34250453      -0.00155306
H       -1.16722715       3.39524259      -0.00055248
H       -3.47324665       3.35034987      -0.00052482
H       -4.69242018       1.22238412      -0.00075587
H        1.05209146       3.44634888      -0.00089378
H        4.70455248       1.21546640      -0.00109509
H        3.51759395       3.40092122      -0.00095340
H       -0.96799145      -3.41539851      -0.00126590
H       -4.67909754      -1.28062126      -0.00098292
C       -2.86875136      -2.45018946      -0.00114565
H       -3.39732203      -3.40653661      -0.00119364
