32
Properties=species:S:1:pos:R:3 Energy=-775.257652623292  
C        3.60401622      -1.20753503       0.00299051
B        2.86745160      -2.50626214       0.00391462
N        1.43732320      -2.37846030       0.00351626
C        0.74169532      -1.21886295       0.00244178
N       -1.43823008       2.37793601      -0.00082307
B       -2.86835731       2.50575366      -0.00119626
C       -3.60493124       1.20703064      -0.00034524
C       -0.74261874       1.21833178       0.00017373
C        2.88841875      -0.01493402       0.00183938
C        1.44135668      -0.00918470       0.00157151
C        1.43920852       2.41867388      -0.00058268
C        0.72637406       1.24416191       0.00037166
C        3.55844043       1.25769386       0.00085137
C        2.86049104       2.42419686      -0.00032827
C       -2.88934671       0.01442193       0.00074253
C       -1.44228428       0.00865746       0.00101434
C       -1.44015767      -2.41919852       0.00306312
C       -0.72730567      -1.24469294       0.00218699
C       -3.55937996      -1.25819903       0.00165615
H        4.69449431      -1.12832163       0.00313018
H        3.32733035      -3.61953557       0.00492427
H        0.87691218      -3.22165018       0.00406102
H       -0.87780734       3.22112054      -0.00130694
H       -3.32822588       3.61903102      -0.00213098
H       -4.69541034       1.12782880      -0.00048623
H        0.93901682       3.38807383      -0.00161471
H        4.65032791       1.26062098       0.00105635
H        3.38531984       3.38170254      -0.00110558
H       -0.93998429      -3.38860569       0.00404623
H       -4.65126781      -1.26111574       0.00143447
C       -2.86144003      -2.42470753       0.00277870
H       -3.38627715      -3.38220829       0.00348899
