32
Properties=species:S:1:pos:R:3 Energy=-775.254671406754  
C        3.56420750      -1.19026530      -0.00084126
B        2.84021913      -2.50430739       0.00099563
N        1.42587153      -2.36837873       0.00132759
C        0.72871332      -1.19683746       0.00025405
C       -1.45886021       2.40828103       0.00006454
C       -2.86302347       2.39452450       0.00117248
C       -3.56008443       1.21485282       0.00176637
C       -0.72091368       1.23509119      -0.00051753
C        2.85631297      -0.00256930      -0.00188460
C        1.40886088       0.01107980      -0.00117606
B        1.44313172       2.47622459      -0.00457488
N        0.70955667       1.24426724      -0.00207658
C        3.59008882       1.25195059      -0.00390214
C        2.96778008       2.44424647      -0.00539509
C       -2.85521905      -0.00947083       0.00147816
C       -1.42758469      -0.00525970       0.00047975
C       -1.44676628      -2.43313088       0.00126004
C       -0.73294259      -1.24964696       0.00061883
C       -3.54441287      -1.25177166       0.00220302
H        4.65397985      -1.10317880      -0.00147753
H        3.31327858      -3.61144039       0.00214300
H        0.85278252      -3.20191704       0.00262980
H       -0.95609492       3.36851934      -0.00036745
H       -3.39433313       3.34854444       0.00153189
H       -4.65160060       1.20178971       0.00255874
H        0.86396738       3.52149761      -0.00600611
H        4.68146402       1.16404145      -0.00428940
H        3.56577933       3.35911594      -0.00708313
H       -0.94419406      -3.40114657       0.00117485
H       -4.63630763      -1.24213312       0.00291045
C       -2.85544135      -2.43390584       0.00201565
H       -3.39038671      -3.38557437       0.00252385
