32
Properties=species:S:1:pos:R:3 Energy=-775.264609779775  
B        3.59770902      -1.26436586       0.00081261
N        2.80626350      -2.44221412       0.00212682
C        1.45066859      -2.39304297       0.00197331
C        0.73147993      -1.22771375       0.00066124
C       -1.45155251       2.39482153      -0.00162301
C       -2.85911801       2.39179675      -0.00120814
C       -3.55863789       1.21729495      -0.00051901
C       -0.72244151       1.22117093      -0.00142498
C        2.83702575       0.04428268      -0.00079838
C        1.42941935       0.04099570      -0.00076002
B        1.44121091       2.49914279      -0.00467082
N        0.71740058       1.23800566      -0.00223049
C        3.56760355       1.27594660      -0.00257575
C        2.94577340       2.48327433      -0.00463629
C       -2.85946592      -0.01349920       0.00000948
C       -1.43074310      -0.02036810      -0.00033077
C       -1.47275567      -2.43970110       0.00160923
C       -0.74057612      -1.26610358       0.00061155
C       -3.56183642      -1.24418821       0.00097752
H        4.79818292      -1.36144608       0.00099436
H        3.21984658      -3.36669070       0.00315849
H        0.94243254      -3.35597482       0.00297193
H       -0.94346969       3.35143262      -0.00214147
H       -3.38399183       3.34929384      -0.00147185
H       -4.65037025       1.20760285      -0.00024954
H        0.83976447       3.53168113      -0.00674011
H        4.66011817       1.19545143      -0.00235793
H        3.54391767       3.39789483      -0.00617912
H       -0.97240747      -3.40715774       0.00238181
H       -4.65359389      -1.22456790       0.00115799
C       -2.87900145      -2.43115220       0.00173132
H       -3.41969802      -3.37985119       0.00251632
