32
Properties=species:S:1:pos:R:3 Energy=-775.246205622871  
C        3.58291694      -1.26413805       0.00026416
B        2.84383362      -2.53101073      -0.00184155
N        1.40236947      -2.33384738      -0.00171218
C        0.76034272      -1.17276975       0.00029335
C       -1.56441709       2.42761812      -0.00215355
C       -2.97210786       2.38820921      -0.00272676
C       -3.62909836       1.18312915      -0.00136898
C       -0.79850274       1.27358392      -0.00055502
C        2.89931111      -0.04038050       0.00131381
N        1.46912262      -0.01158127       0.00103375
C        1.58081664       2.53391393       0.00214295
B        0.75533199       1.30793289       0.00095046
C        3.59466728       1.18267017       0.00257628
C        2.96623357       2.41634452       0.00304461
C       -2.89668277      -0.03043813       0.00039078
C       -1.47116296       0.02260632       0.00041008
C       -1.41183042      -2.39931319       0.00432987
C       -0.72244086      -1.19429056       0.00170969
C       -3.54741658      -1.28740970       0.00237290
H        4.67088883      -1.18506903       0.00066935
H        3.24411671      -3.66514781      -0.00363775
H        0.80299220      -3.14753503      -0.00343197
H       -1.06662755       3.39895949      -0.00292228
H       -3.53922891       3.32156294      -0.00408255
H       -4.72056151       1.13944182      -0.00153186
H        1.15127669       3.53852373       0.00235165
H        4.68229950       1.11483174       0.00297602
H        3.60020500       3.30994483       0.00400140
H       -0.89960011      -3.36235691       0.00672826
H       -4.63939454      -1.31848643       0.00240429
C       -2.81653919      -2.44815873       0.00458872
H       -3.31573584      -3.41857005       0.00661137
