32
Properties=species:S:1:pos:R:3 Energy=-775.245827658592  
C        3.56854265      -1.20414465       0.00087674
N        2.92838813      -2.38492993       0.00105666
B        1.50297669      -2.52593132       0.00053506
C        0.70999371      -1.23898725      -0.00019309
C       -1.45891096       2.40702589       0.00059310
C       -2.87584169       2.48954108       0.00042343
C       -3.62877458       1.35733991      -0.00069249
C       -0.75580079       1.22854860      -0.00026231
C        2.86606350      -0.01394439       0.00029810
C        1.41919378      -0.03301510      -0.00009877
C        1.45717643       2.39413994      -0.00106895
C        0.72421242       1.23158354      -0.00051424
C        3.56942629       1.23232539      -0.00004476
C        2.87885732       2.40179076      -0.00081392
B       -2.92305240       0.01411093      -0.00140679
N       -1.44518418       0.01203546      -0.00094925
C       -1.47041265      -2.38450225      -0.00197087
C       -0.75901283      -1.20873708      -0.00107448
C       -3.63597175      -1.32482287      -0.00241877
H        4.66077958      -1.21129466       0.00118099
H        3.51515214      -3.21223045       0.00154688
H        1.09025069      -3.65378048       0.00077132
H       -0.90236319       3.34031476       0.00144837
H       -3.32578908       3.48769253       0.00116771
H       -4.71963241       1.43856450      -0.00089207
H        0.95656617       3.36027883      -0.00173101
H        4.66175493       1.22065824       0.00023623
H        3.40357361       3.35879199      -0.00121141
H       -0.89868988      -3.30841436      -0.00208604
H       -4.72727112      -1.40013995      -0.00291284
C       -2.88683867      -2.46050284      -0.00270049
H       -3.34233320      -3.45630063      -0.00342023
