32
Properties=species:S:1:pos:R:3 Energy=-775.219874761185  
C        3.60191090      -1.22584794       0.00034844
B        2.85410349      -2.52412462      -0.00024259
N        1.42485436      -2.40409219       0.00022015
C        0.75434457      -1.21970481       0.00114256
C       -1.51661860       2.37191121       0.00213912
C       -2.90682589       2.39916927       0.00242876
C       -3.59246896       1.20896721       0.00271566
N       -0.80708101       1.23752723       0.00212215
C        2.90316700      -0.02006972       0.00110059
C        1.45058425      -0.02141307       0.00146503
C        1.48865191       2.55970175       0.00258683
B        0.71641414       1.30817185       0.00211598
C        3.57605904       1.24906456       0.00156101
C        2.90417127       2.44616043       0.00228239
C       -2.88084208      -0.01194498       0.00261900
C       -1.45443041       0.01435280       0.00220910
C       -1.45272847      -2.39529412       0.00240659
C       -0.71494317      -1.21566123       0.00190734
C       -3.56697307      -1.25072335       0.00294124
H        4.69470819      -1.16611784       0.00013027
H        3.31709764      -3.63885411      -0.00110667
H        0.86827677      -3.24783031      -0.00036372
H       -0.93077510       3.28867766       0.00193600
H       -3.42010664       3.36077549       0.00244316
H       -4.68396120       1.18586056       0.00300097
H        1.09559025       3.58145329       0.00318742
H        4.66846451       1.24070637       0.00132910
H        3.50625587       3.36189903       0.00262742
H       -0.94119056      -3.35713587       0.00249830
H       -4.65816929      -1.24841891       0.00326696
C       -2.85542768      -2.42110520       0.00290410
H       -3.37192713      -3.38269511       0.00325699
