32
Properties=species:S:1:pos:R:3 Energy=-775.261029623979  
N        3.56146982      -1.30171481       0.00115789
C        2.82344901      -2.42572931       0.00092624
C        1.45261613      -2.41564537       0.00066063
C        0.71151024      -1.20036632       0.00061608
C       -1.48831378       2.41739446      -0.00110706
C       -2.87835060       2.41030013      -0.00165578
C       -3.53997983       1.19951554      -0.00139387
C       -0.73504657       1.24210405      -0.00033665
B        2.93968135      -0.00205110       0.00099645
C        1.41268497       0.00624610       0.00062074
C        1.47444888       2.43172550       0.00048752
C        0.73461723       1.27162016       0.00029377
C        3.67561730       1.32381329       0.00117595
C        2.90355267       2.45201455       0.00093804
C       -2.83184557      -0.01208691      -0.00062742
C       -1.41142977      -0.00404717      -0.00015520
B       -1.44353545      -2.47535322       0.00117544
N       -0.71271874      -1.22848557       0.00052408
C       -3.57603461      -1.24660026      -0.00025595
H        4.56910248      -1.41257192       0.00139899
H        3.35799353      -3.37891903       0.00095809
H        0.95214214      -3.37521465       0.00045928
H       -0.97034696       3.37519874      -0.00129480
H       -3.43291819       3.35019842      -0.00226859
H       -4.63148061       1.16066742      -0.00176574
H        0.97191431       3.39879538       0.00027930
H        4.76456281       1.44049686       0.00147251
H        3.37380697       3.44185617       0.00105799
H       -0.85567253      -3.51494225       0.00210675
H       -4.66779739      -1.15539331      -0.00070372
C       -2.95940390      -2.44780174       0.00068598
H       -3.56124402      -3.35969435       0.00103431
