32
Properties=species:S:1:pos:R:3 Energy=-775.235024695877  
C        3.66126739      -1.22365206       0.00036719
C        2.97768644      -2.39510322      -0.00004264
N        1.58786229      -2.52150057      -0.00028938
B        0.71634743      -1.40376588      -0.00014676
C       -1.42841336       2.39393514       0.00061412
C       -2.83618952       2.43167518       0.00045181
C       -3.54879301       1.26809815       0.00004685
C       -0.71212990       1.21414184       0.00037761
C        2.99436043       0.06553384       0.00059857
B        1.48276933       0.03743819       0.00034807
C        1.43221717       2.43447883       0.00098240
N        0.72836595       1.25871450       0.00057060
C        3.60486870       1.30242823       0.00104620
C        2.80395508       2.47230058       0.00121711
C       -2.87015208       0.02283449      -0.00021771
C       -1.44088818      -0.04645971      -0.00006324
C       -1.63808362      -2.48021461      -0.00079725
C       -0.83229421      -1.35658022      -0.00036392
C       -3.63838457      -1.17198195      -0.00065251
H        4.75369711      -1.27877501       0.00052043
H        3.52527883      -3.34099135      -0.00020137
H        1.26089608      -3.48228733      -0.00058108
H       -0.91383411       3.35091930       0.00094571
H       -3.34169695       3.39917315       0.00065532
H       -4.64074609       1.27461381      -0.00008031
H        0.88374110       3.37251942       0.00112340
H        4.69561383       1.41420878       0.00127436
H        3.27830748       3.45504703       0.00154840
H       -1.17033593      -3.46954533      -0.00103914
H       -4.72732294      -1.08158111      -0.00075139
C       -3.04307321      -2.40483784      -0.00094528
H       -3.64681413      -3.31472260      -0.00128811
