32
Properties=species:S:1:pos:R:3 Energy=-775.239865110717  
C        3.66366275      -1.32640749      -0.00173667
B        2.85796084      -2.55502705      -0.00240165
N        1.40958992      -2.32769203      -0.00216831
C        0.74155747      -1.17891058      -0.00136483
C       -1.47591762       2.41863852       0.00209068
C       -2.88060813       2.40775477       0.00280571
C       -3.57330978       1.22327908       0.00216925
C       -0.73655285       1.24475510       0.00057458
B        2.94770295      -0.03016899      -0.00138965
N        1.42408164      -0.01144963      -0.00104061
C        1.45355786       2.39058668      -0.00133084
C        0.73857409       1.22979680      -0.00062063
C        3.62328094       1.34899303      -0.00172973
C        2.88054030       2.47832748      -0.00195244
C       -2.86962199      -0.00346401       0.00092582
C       -1.44387850       0.01060258       0.00015980
C       -1.43742619      -2.41074907      -0.00104580
C       -0.73056872      -1.21989943      -0.00082418
C       -3.54772252      -1.24858802       0.00052453
H        4.75752184      -1.33719422      -0.00183308
H        3.17896059      -3.72063649      -0.00319248
H        0.81580287      -3.14560789      -0.00262984
H       -0.97752081       3.38576441       0.00284615
H       -3.41761190       3.35833245       0.00392693
H       -4.66502320       1.20994464       0.00271048
H        0.89835929       3.32563139      -0.00137275
H        4.71464196       1.42727669      -0.00206052
H        3.32592617       3.47773506      -0.00251652
H       -0.93402557      -3.37814665      -0.00161819
H       -4.63977322      -1.25290600       0.00106790
C       -2.84441330      -2.42470692      -0.00044034
H       -3.36809450      -3.38223420      -0.00068433
