32
Properties=species:S:1:pos:R:3 Energy=-775.289798620806  
B        3.57074469      -1.23812819      -0.00125058
N        2.82142509      -2.42919579      -0.00111560
C        1.44873773      -2.41042610      -0.00058085
C        0.73731586      -1.25395608      -0.00014896
C       -1.45758868       2.40709258       0.00129716
C       -2.86633393       2.40671043       0.00190167
C       -3.56124060       1.22820210       0.00199828
C       -0.72382678       1.23320476       0.00078095
N        2.84122293       0.00778957      -0.00082117
C        1.44469335       0.02311916      -0.00027218
C        1.48852407       2.45305441      -0.00010176
C        0.75379143       1.22719821       0.00012663
B        3.62129740       1.23247785      -0.00102304
C        2.85275761       2.52140954      -0.00064636
C       -2.86324845      -0.00711449       0.00150623
C       -1.43611355      -0.01063672       0.00090064
C       -1.47716333      -2.43230377       0.00057166
C       -0.74111660      -1.25841801       0.00043877
C       -3.56608484      -1.23632762       0.00161414
H        4.76709683      -1.26948723      -0.00170197
H        3.26923579      -3.33600636      -0.00140739
H        0.96046641      -3.38347943      -0.00052213
H       -0.95520120       3.37221003       0.00125494
H       -3.39789302       3.36074858       0.00229523
H       -4.65323412       1.21761498       0.00245817
H        0.91582615       3.38197499       0.00016841
H        4.81946723       1.12506823      -0.00147678
H        3.32115495       3.50849550      -0.00079066
H       -0.97716476      -3.40053913       0.00022976
H       -4.65809379      -1.21861041       0.00207343
C       -2.88211540      -2.42442382       0.00115216
H       -3.42246233      -3.37335782       0.00123651
