32
Properties=species:S:1:pos:R:3 Energy=-775.227170144886  
B        3.64022062      -1.29460704       0.00042856
N        2.87341353      -2.48196180      -0.00028205
C        1.48881513      -2.53843177      -0.00021482
B        0.72028876      -1.28981315       0.00058989
C       -1.48009047       2.39895931       0.00266894
C       -2.88107927       2.41042056       0.00274384
C       -3.58045188       1.23192580       0.00225764
C       -0.72668429       1.22924022       0.00215941
C        2.88269221       0.04390778       0.00135675
C        1.45859126       0.04203473       0.00139061
C        1.46369166       2.46757210       0.00320798
C        0.75016418       1.26679248       0.00225678
C        3.55643195       1.27597098       0.00224112
C        2.85859521       2.47469372       0.00319062
C       -2.88230741       0.00241002       0.00160530
C       -1.45291744      -0.00908929       0.00151956
C       -1.50523714      -2.37000220       0.00021216
N       -0.79494297      -1.23493609       0.00078426
C       -3.58966342      -1.22257369       0.00099834
H        4.84563189      -1.38641721       0.00027894
H        3.35365852      -3.37466559      -0.00088401
H        1.10036077      -3.56204607      -0.00077297
H       -0.96510421       3.35754215       0.00302131
H       -3.40861992       3.36630105       0.00320038
H       -4.67169022       1.21664767       0.00233122
H        0.94871828       3.42843361       0.00403108
H        4.64995472       1.28495621       0.00221009
H        3.39235153       3.42756425       0.00395423
H       -0.92355816      -3.28899305      -0.00036194
H       -4.68104577      -1.20458809       0.00107045
C       -2.89570426      -2.40569733       0.00030767
H       -3.40077287      -3.37182165      -0.00018687
