32
Properties=species:S:1:pos:R:3 Energy=-775.276763745740  
N        3.62928294      -1.28465663       0.00067658
C        2.95097613      -2.45128434       0.00022020
C        1.57825539      -2.47547114      -0.00039862
C        0.80130757      -1.28798651      -0.00055861
C       -1.49549165       2.45139620      -0.00033403
C       -2.89511100       2.44722149      -0.00086391
C       -3.60670170       1.26268392      -0.00162345
C       -0.77186289       1.25973351      -0.00059309
B        2.97190503      -0.00469650       0.00057104
C        1.44297089      -0.04276829      -0.00004279
C        1.45878535       2.37871399       0.00013723
C        0.71999386       1.21973799      -0.00015132
C        3.69331089       1.33751915       0.00095175
C        2.89458642       2.44088961       0.00067260
C       -2.91224479       0.03889577      -0.00181332
C       -1.49658463       0.04064780      -0.00127873
N       -1.56733753      -2.46116894      -0.00203517
B       -0.75923923      -1.29296010      -0.00133322
C       -3.61054131      -1.22697796      -0.00251598
H        4.64166205      -1.35054313       0.00108048
H        3.53696321      -3.37378810       0.00035157
H        1.09546532      -3.45551040      -0.00076765
H       -0.98650967       3.41454156       0.00032283
H       -3.42860914       3.40076864      -0.00065676
H       -4.69923833       1.26976585      -0.00204512
H        0.94459403       3.34022457      -0.00005796
H        4.77964380       1.47876102       0.00137930
H        3.33291180       3.44513710       0.00086099
H       -1.16562686      -3.39107938      -0.00211286
H       -4.70155082      -1.23494731      -0.00297403
C       -2.94360191      -2.40379790      -0.00261057
H       -3.47358152      -3.35873051      -0.00314599
