32
Properties=species:S:1:pos:R:3 Energy=-775.281915415111  
N        3.54899651      -1.16410691       0.00157995
B        2.94818480      -2.45685030       0.00215141
C        1.44553832      -2.45299798       0.00195561
C        0.74130160      -1.27016371       0.00123363
C       -1.48163999       2.41871682       0.00130179
C       -2.88829555       2.41729270       0.00137449
C       -3.57236452       1.23085296       0.00100631
C       -0.74440493       1.24832457       0.00093129
C        2.84119564       0.00050671       0.00105498
C        1.43803935       0.00058984       0.00096068
C        1.44582800       2.45417663       0.00008314
C        0.74144828       1.27142573       0.00062354
N        3.54913436       1.16503494       0.00063201
B        2.94847429       2.45784900       0.00005633
C       -2.86947476       0.00083238       0.00067725
C       -1.44169094       0.00075619       0.00077369
C       -1.48190769      -2.41720203       0.00014936
C       -0.74454587      -1.24688994       0.00069150
C       -3.57250158      -1.22910916       0.00023578
H        4.55843818      -1.06571078       0.00158880
H        3.67308394      -3.41879681       0.00266976
H        0.89339590      -3.39172603       0.00234336
H       -0.97375121       3.38117395       0.00154159
H       -3.42577650       3.36755744       0.00168962
H       -4.66455176       1.21282491       0.00098062
H        0.89380322       3.39297264      -0.00028679
H        4.55856585       1.06652145       0.00074389
H        3.67349074       3.41970750      -0.00033817
H       -0.97412188      -3.37971216      -0.00010696
H       -4.66468972      -1.21095854       0.00013052
C       -2.88856117      -2.41562456      -0.00010053
H       -3.42614419      -3.36583287      -0.00052962
