32
Properties=species:S:1:pos:R:3 Energy=-775.227683988712  
B        3.63581836      -1.24651318      -0.00430328
C        2.95466315      -2.52412498      -0.01043985
B        1.48477258      -2.50177503      -0.01098545
N        0.73672875      -1.20069553      -0.00411569
C       -1.48432652       2.45197297      -0.00287725
C       -2.89026166       2.43466163      -0.00314432
C       -3.56316168       1.24127422      -0.00167362
C       -0.75409010       1.27807176      -0.00166466
N        2.77191685       0.00051004      -0.00075851
C        1.39857490      -0.00741955      -0.00138899
C        1.45320980       2.41835208       0.00347104
C        0.71505738       1.25262114       0.00027391
C        3.46186872       1.17933265       0.00252578
C        2.85201819       2.39465902       0.00485477
C       -2.85711420       0.01221682      -0.00040814
C       -1.42968309       0.02811224      -0.00122768
C       -1.42412964      -2.38177526       0.00267405
C       -0.70300626      -1.20238572      -0.00093399
C       -3.54615699      -1.22375547       0.00200521
H        4.81457168      -0.98383165      -0.00235594
H        3.49309933      -3.47450872      -0.01488026
H        0.82311678      -3.49762987      -0.01733798
H       -0.98387539       3.41913859      -0.00352226
H       -3.43847725       3.37872658      -0.00417020
H       -4.65487152       1.21577514      -0.00134237
H        0.94260135       3.37962298       0.00494960
H        4.54310220       1.06137116       0.00298569
H        3.44297162       3.30959204       0.00746625
H       -0.90911529      -3.33331916       0.00432760
H       -4.63778573      -1.22570281       0.00269608
C       -2.83207365      -2.38939401       0.00405338
H       -3.34604600      -3.35272655       0.00662086
