32
Properties=species:S:1:pos:R:3 Energy=-775.259136627536  
N        3.59475233      -1.28868121       0.00096649
C        2.87190506      -2.42710433       0.00086750
C        1.50076696      -2.42366128       0.00032127
C        0.74723247      -1.21565212      -0.00017879
C       -1.48620456       2.40398387      -0.00231048
C       -2.90476963       2.40356942      -0.00293066
C       -3.58248949       1.22397267      -0.00271397
C       -0.73510634       1.24969730      -0.00146957
B        2.96455403       0.00916302       0.00046508
C        1.44041812       0.00345941      -0.00018423
C        1.47960518       2.42759596      -0.00051407
C        0.74181217       1.26117257      -0.00071990
C        3.69249176       1.34184944       0.00057758
C        2.90760189       2.46259713       0.00010922
C       -2.86450402      -0.01217185      -0.00191862
C       -1.41957144      -0.02758916      -0.00132469
B       -1.51407656      -2.53184014      -0.00043893
C       -0.72090136      -1.25271790      -0.00065848
C       -3.57103590      -1.20503317      -0.00173314
H        4.60352728      -1.38854926       0.00141710
H        3.42400643      -3.37055988       0.00125350
H        0.98904159      -3.38327850       0.00028763
H       -0.98192087       3.37018068      -0.00251908
H       -3.44030569       3.35469150      -0.00357508
H       -4.67480244       1.19936887      -0.00315461
H        0.97097486       3.39240750      -0.00082579
H        4.78025807       1.47218896       0.00102205
H        3.36709171       3.45772049       0.00019726
H       -1.10100878      -3.66070157       0.00018434
H       -4.66393432      -1.20249048      -0.00217484
N       -2.94635036      -2.38845397      -0.00101572
H       -3.54061455      -3.21046572      -0.00090794
