32
Properties=species:S:1:pos:R:3 Energy=-775.234391497434  
C        3.57377301      -1.23856158      -0.00223061
C        2.96371173      -2.44433466      -0.00669954
B        1.45044778      -2.48195273      -0.00736870
N        0.71323866      -1.24172051      -0.00250070
C       -1.49479909       2.44394262      -0.00391758
C       -2.86897747       2.49584611      -0.00526038
B       -3.62169706       1.21469040      -0.00355442
C       -0.76096569       1.23617956      -0.00160342
C        2.82250550      -0.01141685       0.00066896
C        1.40500162      -0.01581643      -0.00011728
C        1.45142843       2.40000644       0.00405012
C        0.71117235       1.21980049       0.00090589
C        3.52214518       1.21013934       0.00375093
C        2.84625711       2.40745475       0.00566098
N       -2.82619380      -0.00834619      -0.00124286
C       -1.43344422       0.01323126      -0.00106044
C       -1.43755047      -2.41030939       0.00384316
C       -0.72026097      -1.24498981       0.00013304
C       -3.50772932      -1.21377258       0.00134130
H        4.66491702      -1.14101818      -0.00124281
H        3.57116585      -3.35253984      -0.00950977
H        0.86950457      -3.52678208      -0.01192431
H       -0.93423430       3.37990254      -0.00485539
H       -3.34775699       3.47764145      -0.00720605
H       -4.81664225       1.07107872      -0.00365180
H        0.93547443       3.35777303       0.00535754
H        4.61375429       1.18190911       0.00446654
H        3.38626743       3.35577709       0.00817293
H       -0.93079180      -3.36793113       0.00603990
H       -4.59192726      -1.12344999       0.00110505
C       -2.85673143      -2.39293547       0.00434230
H       -3.41770857      -3.32713825       0.00685665
