32
Properties=species:S:1:pos:R:3 Energy=-775.237694742834  
C        3.64280487      -1.16301313      -0.00068032
C        3.00908044      -2.36853123      -0.00046125
C        1.58383431      -2.47770919      -0.00051991
C        0.78799353      -1.35894613      -0.00079840
C       -1.48345655       2.41754249      -0.00216572
C       -2.89839220       2.44204016      -0.00231532
C       -3.56269182       1.26231514      -0.00193644
C       -0.77285446       1.24851095      -0.00166282
N        2.93743184       0.02118366      -0.00098895
B        1.48294946      -0.02791387      -0.00108083
C        1.44902282       2.43143520      -0.00167132
C        0.70600568       1.27333395      -0.00147961
C        3.57827120       1.23525878      -0.00121218
C        2.87372956       2.40077339      -0.00153130
C       -2.85845771       0.01714695      -0.00142968
N       -1.45606144       0.00506068      -0.00132010
C       -1.63280525      -2.54155411      -0.00044012
B       -0.76470227      -1.31731573      -0.00084948
C       -3.60034733      -1.15791399      -0.00106929
H        4.73214831      -1.07867997      -0.00061962
H        3.62467730      -3.26993682      -0.00022377
H        1.15924720      -3.48819204      -0.00033151
H       -0.94248411       3.36066786      -0.00245006
H       -3.43138501       3.39426990      -0.00272680
H       -4.65199474       1.21662862      -0.00200362
H        0.98876841       3.42272769      -0.00194034
H        4.67066544       1.21534708      -0.00111894
H        3.42839320       3.33996207      -0.00168658
H       -1.20299998      -3.54752441      -0.00004246
H       -4.68595961      -1.05758878      -0.00119793
C       -3.00270789      -2.42214893      -0.00056478
H       -3.65340182      -3.30314713      -0.00028210
