32
Properties=species:S:1:pos:R:3 Energy=-771.835846664285  
N        3.56969555      -1.31123056      -0.00101243
C        2.84626507      -2.44857700      -0.00064479
C        1.47494218      -2.44004351      -0.00009137
C        0.72973798      -1.22896273       0.00011037
C       -1.49341353       2.42650969       0.00063144
C       -2.89957701       2.41759350       0.00116631
C       -3.58229575       1.22860628       0.00156623
C       -0.75097445       1.25734487       0.00051828
B        2.94589133      -0.01338321      -0.00081955
C        1.41922390      -0.01293011      -0.00022740
C        1.47391399       2.40904876      -0.00021971
C        0.72732017       1.25268934       0.00001249
C        3.68356270       1.31584321      -0.00110865
C        2.90599928       2.43832699      -0.00077071
C       -2.87457683       0.00127247       0.00141351
C       -1.44886564       0.00755865       0.00087941
C       -1.47476152      -2.41846417       0.00099878
C       -0.74731905      -1.24178673       0.00068122
C       -3.56967037      -1.23555202       0.00175818
H        4.57861630      -1.41330100      -0.00140973
H        3.39560387      -3.39324508      -0.00079966
H        0.97517357      -3.40584269       0.00021303
H       -0.98587652       3.39053128       0.00028579
H       -3.44148494       3.36559532       0.00125332
H       -4.67436911       1.20836691       0.00198755
H        0.97107872       3.37664867       0.00003661
H        4.77199995       1.43799797      -0.00153029
H        3.36870280       3.43159168      -0.00091562
H       -0.96231094      -3.37946631       0.00081179
H       -4.66204948      -1.22344485       0.00218082
C       -2.88261095      -2.42061357       0.00154930
H       -3.41878394      -3.37166140       0.00179888
