32
Properties=species:S:1:pos:R:3 Energy=-775.245287304599  
C        3.61163052      -1.23211042       0.00164480
C        2.92986168      -2.40142535       0.00017647
N        1.56317383      -2.44677780      -0.00082074
B        0.72325181      -1.29077381      -0.00045262
C       -1.48501434       2.53155292       0.00106054
C       -2.89408196       2.44564491      -0.00003631
C       -3.57409720       1.24601900      -0.00148229
B       -0.71132696       1.27171207       0.00062527
C        2.91880326       0.03298049       0.00223021
C        1.50601676       0.04939714       0.00121511
C        1.51784432       2.39804412       0.00324433
N        0.83191636       1.24559301       0.00174177
C        3.61831463       1.25382880       0.00379427
C        2.90531465       2.43643864       0.00430151
C       -2.89104585      -0.00245687      -0.00198722
C       -1.46243815      -0.04949746      -0.00098683
C       -1.56561884      -2.48904732      -0.00305443
C       -0.81233467      -1.32013311      -0.00155843
C       -3.61273958      -1.22304623      -0.00349615
H        4.70151480      -1.24183635       0.00240700
H        3.45436584      -3.35952964      -0.00026851
H        1.14972792      -3.37224371      -0.00186913
H       -1.07888572       3.54908299       0.00213933
H       -3.48636928       3.36749071       0.00026330
H       -4.66721316       1.24009744      -0.00228507
H        0.92220346       3.30812903       0.00360414
H        4.71036396       1.25662454       0.00460027
H        3.40755131       3.40444356       0.00552578
H       -1.07838532      -3.47037829      -0.00351073
H       -4.70583186      -1.18454229      -0.00425853
C       -2.96936057      -2.44209134      -0.00402605
H       -3.54822919      -3.36855576      -0.00521391
