32
Properties=species:S:1:pos:R:3 Energy=-775.249907380793  
C        3.57217939      -1.24140231       0.00005842
N        2.90788812      -2.40704402      -0.00000895
B        1.47682868      -2.51467772       0.00018908
C        0.70525071      -1.21662851       0.00053583
C       -1.59736940       2.54737087      -0.00118718
C       -2.97048496       2.44441858      -0.00118607
C       -3.59820529       1.19389832      -0.00027679
B       -0.76790859       1.29857505      -0.00021496
C        2.89344266      -0.03701622       0.00019030
C        1.44674034      -0.01944545       0.00030220
C        1.54531633       2.40645695       0.00019986
C        0.78693906       1.26103983       0.00015660
C        3.62488407       1.19542560       0.00022591
C        2.96878221       2.38627290       0.00028339
C       -2.87805416       0.00513112       0.00054029
N       -1.47909996       0.01321326       0.00044855
C       -1.47136866      -2.38468142       0.00216127
C       -0.77188894      -1.20382780       0.00106725
C       -3.57138185      -1.24443732       0.00154663
H        4.66451439      -1.27257077      -0.00002374
H        3.47591453      -3.24714535      -0.00022080
H        1.04906228      -3.63798057      -0.00001812
H       -1.15982343       3.54916085      -0.00191310
H       -3.60406739       3.33782649      -0.00187671
H       -4.68575313       1.11740926      -0.00016852
H        1.04464031       3.37709310       0.00013876
H        4.71699316       1.15393161       0.00019924
H        3.52390793       3.32632880       0.00033640
H       -0.91502482      -3.31652146       0.00277648
H       -4.66114624      -1.21342859       0.00162563
C       -2.88539525      -2.41410426       0.00242362
H       -3.40819375      -3.37236542       0.00328298
