32
Properties=species:S:1:pos:R:3 Energy=-775.257888876505  
B        3.63750749      -1.29444598       0.00227483
N        2.81954811      -2.44583850       0.00060859
C        1.44951449      -2.39919707      -0.00018753
C        0.74392229      -1.23172251       0.00053173
C       -1.45288157       2.39043234      -0.00065803
C       -2.87147309       2.46744536      -0.00205686
C       -3.61660549       1.33206575      -0.00263939
C       -0.74112607       1.21908364       0.00009178
C        2.88477481       0.03421922       0.00280476
C        1.46427660       0.02411519       0.00172632
C        1.45939003       2.43150792       0.00294708
C        0.73903170       1.23757583       0.00166839
C        3.55984705       1.26586583       0.00407873
C        2.85461128       2.45327272       0.00420129
B       -2.90226694      -0.00701511      -0.00176509
N       -1.42189830      -0.00587319      -0.00055101
C       -1.44870592      -2.39958661       0.00037106
C       -0.73730940      -1.22638169       0.00013206
C       -3.61519984      -1.34405782      -0.00183792
H        4.83565135      -1.41571400       0.00300525
H        3.22207049      -3.37520397      -0.00007193
H        0.95556748      -3.36827697      -0.00149480
H       -0.90268449       3.32701236      -0.00014395
H       -3.32557708       3.46358249      -0.00257024
H       -4.70802591       1.40407948      -0.00365981
H        0.93968216       3.38741562       0.00298191
H        4.65230080       1.27238640       0.00494289
H        3.37620076       3.41243123       0.00520604
H       -0.90070904      -3.33819719       0.00135907
H       -4.70627918      -1.41937204      -0.00264898
C       -2.86569619      -2.47776892      -0.00058885
H       -3.31789991      -3.47495002      -0.00032009
