32
Properties=species:S:1:pos:R:3 Energy=-775.296137685516  
C        3.63018863      -1.26159631       0.00076714
C        2.93444635      -2.43227622       0.00104724
N        1.56707341      -2.48752423       0.00121470
B        0.76529482      -1.29770996       0.00114605
C       -1.55392109       2.42377771      -0.00039084
C       -2.96496690       2.42019881      -0.00032814
C       -3.63430461       1.22559178       0.00040701
C       -0.80387810       1.26320210       0.00022952
C        2.93520552      -0.00269645       0.00055735
C        1.53864956      -0.00313000       0.00072860
N        1.56551491       2.48128707      -0.00015381
B        0.76449109       1.29097045       0.00026695
C        3.62939714       1.25664398       0.00012338
C        2.93292721       2.42688847      -0.00019112
C       -2.92455324      -0.00453338       0.00104492
C       -1.49747692      -0.00409437       0.00090141
C       -1.55241262      -2.43199940       0.00226010
C       -0.80308979      -1.27094651       0.00145143
C       -3.63353158      -1.23509129       0.00183333
H        4.72099259      -1.29399993       0.00066190
H        3.45859699      -3.39144588       0.00113186
H        1.16830636      -3.41942722       0.00130292
H       -1.04912896       3.39532578      -0.00096792
H       -3.51400757       3.36431031      -0.00085069
H       -4.72703233       1.19906555       0.00050923
H        1.16617203       3.41294588      -0.00044194
H        4.72018133       1.28973050       0.00005324
H        3.45647773       3.38638503      -0.00049830
H       -1.04701349      -3.40323400       0.00279374
H       -4.72627646      -1.20926543       0.00194020
C       -2.96344946      -2.42929083       0.00247073
H       -3.51191737      -3.37373530       0.00312906
