32
Properties=species:S:1:pos:R:3 Energy=-775.256895682239  
N        3.55429314      -1.17334129       0.00129138
B        2.94119600      -2.44810544       0.00066081
C        1.42740067      -2.44353684       0.00044792
C        0.71441829      -1.27055533       0.00086617
C       -1.44555565       2.42136134       0.00269694
C       -2.86224198       2.41203238       0.00256534
C       -3.50556153       1.22366103       0.00173862
C       -0.72830573       1.25389118       0.00200935
C        2.85487564       0.01093247       0.00171804
C        1.43477565      -0.00199764       0.00155481
C        1.47521870       2.42982496       0.00261185
C        0.74894284       1.23939405       0.00206219
C        3.55467714       1.22665037       0.00230891
C        2.86760621       2.42285993       0.00273512
N       -2.83173170       0.01909182       0.00106389
C       -1.43698485      -0.00553647       0.00121954
C       -1.51430918      -2.43579812      -0.00019943
C       -0.76410001      -1.23283163       0.00062485
B       -3.63576276      -1.20121315       0.00021308
H        4.56240053      -1.07261434       0.00145689
H        3.64460426      -3.42728511       0.00033425
H        0.88533835      -3.38835424      -0.00006224
H       -0.93708409       3.38342125       0.00336550
H       -3.43107115       3.34134018       0.00310699
H       -4.59055012       1.13529046       0.00155845
H        0.96571590       3.39123193       0.00295134
H        4.64725261       1.20995761       0.00241142
H        3.41481596       3.36761377       0.00317554
H       -0.95606839      -3.37265616      -0.00067144
H       -4.82987871      -1.04976564       0.00013997
C       -2.88705805      -2.48477003      -0.00045468
H       -3.36811627      -3.46540266      -0.00112795
