32
Properties=species:S:1:pos:R:3 Energy=-775.278659357465  
N        3.57636776      -1.32355408       0.00113741
C        2.83456691      -2.44835916       0.00042371
C        1.46227052      -2.41488419       0.00006791
C        0.72496875      -1.19974463       0.00041136
N       -1.58404612       2.47221698       0.00120455
C       -2.95720319       2.40360800       0.00079277
C       -3.61885599       1.22300236       0.00017324
B       -0.75879196       1.31244036       0.00102455
B        2.96656966      -0.02113693       0.00155093
C        1.44153312       0.01136149       0.00112653
C        1.56686601       2.44047397       0.00227557
C        0.79189541       1.30521248       0.00151247
C        3.73876103       1.29573857       0.00238164
C        3.00288613       2.44441369       0.00270709
C       -2.90956967      -0.03624572      -0.00010521
C       -1.49615063      -0.02816842       0.00028996
C       -1.47862356      -2.44307235      -0.00062986
C       -0.76762471      -1.24490887       0.00001039
C       -3.59465662      -1.26786228      -0.00076305
H        4.58379328      -1.44123540       0.00136293
H        3.36718654      -3.40252418       0.00013436
H        0.95258008      -3.37536911      -0.00051275
H       -1.18773789       3.40465967       0.00163553
H       -3.49481969       3.35450440       0.00099432
H       -4.70972189       1.22343627      -0.00012348
H        1.07887437       3.42168013       0.00259533
H        4.83134799       1.38138072       0.00273631
H        3.49605252       3.42292007       0.00331873
H       -0.96539235      -3.40351507      -0.00084921
H       -4.68726212      -1.28130125      -0.00107119
C       -2.87961235      -2.44864117      -0.00101150
H       -3.40806617      -3.40479798      -0.00151707
