32
Properties=species:S:1:pos:R:3 Energy=-775.254909859880  
N        3.55206631      -1.10604296      -0.00067469
B        3.03139429      -2.46927849       0.00059728
C        1.56038185      -2.57816871       0.00040757
B        0.75627144      -1.34963809      -0.00092601
C       -1.42476996       2.39525704      -0.00237849
C       -2.83001092       2.43978927      -0.00235583
C       -3.55814728       1.27864044      -0.00236526
C       -0.72558012       1.19710390      -0.00241683
C        2.84640963       0.03356461      -0.00184865
N        1.47112183       0.00031667      -0.00184620
C        1.44888846       2.39740082      -0.00436700
C        0.76216516       1.20105908      -0.00288280
C        3.54483104       1.26471228      -0.00313797
C        2.84926776       2.43613766      -0.00448669
C       -2.89967178       0.02617100      -0.00219858
C       -1.47251521      -0.02295290      -0.00209137
C       -1.56938180      -2.42919771      -0.00142003
C       -0.80301967      -1.27694183      -0.00156899
C       -3.63249179      -1.18752385      -0.00205688
H        4.55355497      -0.95482950      -0.00078245
H        3.87796723      -3.33320631       0.00157388
H        1.07404515      -3.55725125       0.00118829
H       -0.90467586       3.35019564      -0.00231270
H       -3.33140930       3.40941191      -0.00234924
H       -4.65037329       1.30342998      -0.00241627
H        0.90501830       3.33502547      -0.00551074
H        4.63510909       1.23910607      -0.00311059
H        3.37011837       3.39518370      -0.00563058
H       -1.06893856      -3.39882237      -0.00102562
H       -4.72408722      -1.14169924      -0.00219898
C       -2.97759278      -2.39230974      -0.00171824
H       -3.54415317      -3.32610300      -0.00161108
