32
Properties=species:S:1:pos:R:3 Energy=-775.276846906538  
C        3.61433127      -1.21808352      -0.00047849
C        3.01461864      -2.42859069      -0.00241272
B        1.49218734      -2.47413301      -0.00286341
N        0.75956007      -1.23637171      -0.00134024
C       -1.45462128       2.41475886      -0.00351244
C       -2.87498247       2.43484756      -0.00437470
C       -3.54803688       1.26310288      -0.00316340
C       -0.75946385       1.23971045      -0.00156134
C        2.85432336       0.00850051       0.00063394
C        1.43412613      -0.01932765      -0.00014913
C        1.44452625       2.39963958       0.00233613
C        0.72100532       1.20547545       0.00028395
C        3.53109315       1.23674731       0.00241443
C        2.83558915       2.42762685       0.00342884
C       -2.84898580       0.01154536      -0.00149451
N       -1.44393973       0.01534513      -0.00111366
C       -1.54684616      -2.51583787       0.00099067
B       -0.71962613      -1.26009898      -0.00048900
C       -3.55988886      -1.17294604      -0.00044119
H        4.70502555      -1.11141022       0.00020238
H        3.63437536      -3.32876773      -0.00336640
H        0.89337431      -3.51156332      -0.00441125
H       -0.92309113       3.36052444      -0.00437202
H       -3.40318182       3.38972926      -0.00587178
H       -4.63741675       1.22341358      -0.00355350
H        0.92035943       3.35241382       0.00323898
H        4.62345055       1.22938373       0.00306748
H        3.36141170       3.38362279       0.00503905
H       -1.10640076      -3.51130962       0.00208677
H       -4.64774247      -1.10672394      -0.00076760
C       -2.91494054      -2.41918362       0.00098742
H       -3.53662832      -3.32047620       0.00203300
