32
Properties=species:S:1:pos:R:3 Energy=-775.261749954690  
N        3.64561836      -1.17831947      -0.00193417
B        3.00112405      -2.43504795      -0.00276319
C        1.45477775      -2.48723215      -0.00220997
C        0.69339256      -1.35457634      -0.00096396
C       -1.42674197       2.41086534       0.00415684
C       -2.83568863       2.43045780       0.00488363
C       -3.54013626       1.26082903       0.00376382
C       -0.71284792       1.23022188       0.00231356
C        2.96122810       0.02912669      -0.00061022
B        1.43709675      -0.01347238      -0.00000199
C        1.43345747       2.40663046       0.00209293
N        0.72028640       1.23089697       0.00147529
C        3.58091349       1.25287775       0.00019483
C        2.79745697       2.43610011       0.00150405
C       -2.85474788       0.01881543       0.00194945
C       -1.42649594      -0.02247862       0.00124393
C       -1.55384845      -2.45129021      -0.00149684
C       -0.77990974      -1.30522815      -0.00044557
C       -3.59512086      -1.19028084       0.00083981
H        4.65882695      -1.12044316      -0.00230460
H        3.69416118      -3.42404322      -0.00389366
H        0.96401892      -3.46751520      -0.00286745
H       -0.91910414       3.37132482       0.00514146
H       -3.35152641       3.39251143       0.00635250
H       -4.63194976       1.26061290       0.00427221
H        0.88180816       3.34134788       0.00303433
H        4.67330902       1.34007869      -0.00018372
H        3.28719336       3.41055548       0.00205539
H       -1.06052859      -3.42358014      -0.00282647
H       -4.68577686      -1.13161833       0.00138438
C       -2.95788311      -2.40313776      -0.00088236
H       -3.53284629      -3.33137069      -0.00176634
