32
Properties=species:S:1:pos:R:3 Energy=-775.253337629118  
C        3.59877691      -1.22441061       0.00111058
B        2.86310884      -2.51663820       0.00169442
N        1.42870895      -2.38256179       0.00191923
C        0.74829770      -1.21932866       0.00163309
B       -1.45599177       2.47935477      -0.00092710
C       -2.97174838       2.43561697      -0.00066108
C       -3.58076677       1.23014406       0.00068739
N       -0.71352676       1.23964535       0.00027826
C        2.89299219      -0.02266327       0.00071270
C        1.44194282      -0.01076314       0.00089683
C        1.44252141       2.41004031      -0.00007601
C        0.72448601       1.24116380       0.00036558
C        3.56892615       1.24083904       0.00015869
C        2.86256403       2.40071996      -0.00017170
C       -2.82189327       0.00705818       0.00170019
C       -1.40133994       0.02302201       0.00139333
C       -1.44394173      -2.40645549       0.00351042
C       -0.71488996      -1.21825229       0.00219935
C       -3.50992430      -1.21798821       0.00296421
H        4.68936313      -1.14878380       0.00095363
H        3.31352220      -3.63431313       0.00201299
H        0.86514380      -3.22272823       0.00228778
H       -0.87753907       3.52353644      -0.00211776
H       -3.58076092       3.34270462      -0.00148459
H       -4.67139380       1.12880623       0.00100288
H        0.93899430       3.36923160      -0.00039966
H        4.66035358       1.24312030       0.00004377
H        3.38349419       3.36088948      -0.00055415
H       -0.93054375      -3.36837862       0.00432664
H       -4.60178724      -1.19488321       0.00318704
C       -2.83566959      -2.41991852       0.00391608
H       -3.37642460      -3.36727440       0.00496335
