32
Properties=species:S:1:pos:R:3 Energy=-775.339630512900  
N        3.57954572      -1.16617189       0.00310693
B        2.96752558      -2.44405361       0.00222914
N        1.54445657      -2.50272836       0.00178878
B        0.74679238      -1.32278010       0.00194258
C       -1.45423821       2.39511769       0.00166430
C       -2.86256866       2.42401780       0.00079041
C       -3.57268594       1.25397680       0.00036218
C       -0.73164819       1.21520582       0.00215537
C        2.89372967       0.04225705       0.00363514
C        1.48245879       0.02441771       0.00282780
C        1.47559214       2.44268680       0.00487235
C        0.76033720       1.24040297       0.00330193
C        3.58804237       1.25762944       0.00500724
C        2.86919969       2.44200811       0.00567913
C       -2.89087882       0.01098094       0.00063809
C       -1.46452191      -0.02531730       0.00145340
C       -1.57130411      -2.45024855       0.00074987
C       -0.80666512      -1.29877123       0.00142414
C       -3.62199591      -1.20598704       0.00003030
H        4.58873359      -1.09023661       0.00352975
H        3.65493221      -3.43428838       0.00188694
H        1.10643275      -3.41643640       0.00134751
H       -0.93443353       3.35190862       0.00190397
H       -3.37754809       3.38683312       0.00046231
H       -4.66513736       1.25896032      -0.00026082
H        0.96561670       3.40407054       0.00560360
H        4.68095630       1.26768550       0.00562649
H        3.40331681       3.39506506       0.00690253
H       -1.07939387      -3.42763530       0.00067676
H       -4.71377024      -1.15585739      -0.00053265
C       -2.97992266      -2.41694216       0.00010048
H       -3.55052257      -3.34795218      -0.00038886
