32
Properties=species:S:1:pos:R:3 Energy=-775.250724189190  
C        3.60788611      -1.23907764       0.00015887
B        2.86634673      -2.51320847       0.00008137
N        1.41863924      -2.37291142       0.00010043
C        0.74128763      -1.22070192       0.00026320
C       -1.45792105       2.41668409       0.00176534
C       -2.86413997       2.41742677       0.00200031
C       -3.55362575       1.23206567       0.00149785
C       -0.72909587       1.23803035       0.00096701
C        2.92851394      -0.00224082       0.00022353
C        1.46025503      -0.00222888       0.00037149
N        1.41868194       2.36845810       0.00014532
C        0.74131660       1.21625979       0.00048030
C        3.60790764       1.23458508       0.00013644
B        2.86639113       2.50873018      -0.00001365
C       -2.85665102      -0.00215974       0.00087229
C       -1.43355781      -0.00218749       0.00066921
C       -1.45801389      -2.42105477      -0.00003554
C       -0.72913486      -1.24243009       0.00026216
C       -3.55367430      -1.23635683       0.00050337
H        4.69941025      -1.17985964       0.00009739
H        3.29627292      -3.63970098      -0.00003804
H        0.85711937      -3.21507336      -0.00004670
H       -0.96005825       3.38732180       0.00233876
H       -3.39890221       3.36881836       0.00260363
H       -4.64559791       1.22151312       0.00163780
H        0.85717123       3.21062866      -0.00010710
H        4.69943077       1.17534832       0.00006927
H        3.29633972       3.63521393      -0.00027647
H       -0.96020018      -3.39171563      -0.00032355
H       -4.64564606      -1.22576214       0.00061705
C       -2.86423298      -2.42174313       0.00004525
H       -3.39903168      -3.37311407      -0.00023444
