32
Properties=species:S:1:pos:R:3 Energy=-775.300531088023  
C        3.60994205      -1.24073740       0.00116967
C        2.92083323      -2.40432814       0.00230958
N        1.54464590      -2.43708199       0.00263555
B        0.73925957      -1.26518918       0.00177640
N       -1.54629668       2.43692565      -0.00090144
C       -2.92247872       2.40416935      -0.00056024
C       -3.61159195       1.24057982       0.00061883
B       -0.74090809       1.26502836      -0.00003591
C        2.92861414       0.03364206       0.00024538
C        1.51391472       0.06654626       0.00047886
C        1.57385759       2.48508331      -0.00147537
C        0.82721629       1.31148843      -0.00039828
C        3.64792727       1.24777340      -0.00086730
C        2.97641625       2.45438017      -0.00171293
C       -2.93026652      -0.03379926       0.00155974
C       -1.51556825      -0.06670195       0.00128845
C       -1.57550485      -2.48524084       0.00324019
C       -0.82886704      -1.31164619       0.00214469
C       -3.64957677      -1.24793498       0.00272340
H        4.70071308      -1.26696502       0.00094012
H        3.43265288      -3.36921098       0.00301611
H        1.12922259      -3.36119121       0.00358219
H       -1.13086920       3.36103252      -0.00183396
H       -3.43430652       3.36904893      -0.00130184
H       -4.70236230       1.26681724       0.00085029
H        1.07954956       3.46206616      -0.00216532
H        4.74080760       1.22524401      -0.00104980
H        3.53980017       3.39069840      -0.00257286
H       -1.08119764      -3.46222311       0.00388344
H       -4.74245742      -1.22540099       0.00297530
C       -2.97806650      -2.45453871       0.00354149
H       -3.54144744      -3.39085856       0.00443552
