32
Properties=species:S:1:pos:R:3 Energy=-775.218472582635  
N        3.61682165      -1.35142545       0.00218298
C        2.79100302      -2.46188436       0.00229930
C        1.43735761      -2.42003358       0.00165690
N        0.69290042      -1.23841089       0.00080251
C       -1.55605682       2.45250870      -0.00301236
C       -2.95983081       2.40774867      -0.00367116
C       -3.60251373       1.19682542      -0.00290575
C       -0.78497385       1.30267207      -0.00164477
B        3.06946243      -0.04686783       0.00116903
B        1.41369487      -0.01563207       0.00035843
C        1.48134390       2.43201312      -0.00108311
C        0.68290626       1.32683312      -0.00083418
C        3.76384953       1.33022173       0.00074091
C        2.95000177       2.42074434      -0.00030426
C       -2.86686062      -0.01547208      -0.00150405
C       -1.43966265       0.02017750      -0.00092541
C       -1.44949333      -2.41830250       0.00134350
C       -0.73192273      -1.23957751       0.00041547
C       -3.55715277      -1.25632581      -0.00064450
H        4.61238441      -1.55199628       0.00280525
H        3.27750218      -3.43850256       0.00291380
H        0.90612736      -3.36640986       0.00167561
H       -1.06033654       3.42436204      -0.00358513
H       -3.53202610       3.33788470      -0.00477374
H       -4.69344009       1.14333912      -0.00335520
H        1.03956094       3.43514671      -0.00192283
H        4.84505695       1.51314299       0.00118312
H        3.40200966       3.41993882      -0.00065060
H       -0.93921602      -3.37807180       0.00257157
H       -4.64901444      -1.25107970      -0.00112032
C       -2.85886626      -2.43012580       0.00080498
H       -3.38119911      -3.38887271       0.00156266
